


 48 55  0  0  0  0  0  0  0  0999 V2000
   -7.6085    4.9869    6.7429 C   0  0  0  0  0  0  0  0  0  0  0  0
   -6.4790    5.7229    6.8182 N   0  0  0  0  0  0  0  0  0  0  0  0
   -6.3601    6.6607    7.7953 N   0  0  0  0  0  0  0  0  0  0  0  0
   -7.3713    6.8306    8.6740 C   0  0  0  0  0  0  0  0  0  0  0  0
   -8.5441    6.0961    8.6333 C   0  0  0  0  0  0  0  0  0  0  0  0
   -9.5627    6.2816    9.5833 N   0  0  0  0  0  0  0  0  0  0  0  0
  -10.6697    5.5137    9.5847 C   0  0  0  0  0  0  0  0  0  0  0  0
  -11.7072    5.4502   10.3900 N   0  0  0  0  0  0  0  0  0  0  0  0
  -12.5026    4.4322    9.9050 N   0  0  0  0  0  0  0  0  0  0  0  0
  -11.9691    3.8798    8.8207 N   0  0  0  0  0  0  0  0  0  0  0  0
  -10.8404    4.5716    8.6060 N   0  0  0  0  0  0  0  0  0  0  0  0
   -9.9361    4.3000    7.4896 C   0  0  0  0  0  0  0  0  0  0  0  0
   -8.6733    5.1401    7.6173 C   0  0  0  0  0  0  0  0  0  0  0  0
   -7.1849    7.7808    9.6429 O   0  0  0  0  0  0  0  0  0  0  0  0
   -9.4654    6.9878   10.2623 H   0  0  0  0  0  0  0  0  0  0  0  0
   -6.3896    8.2757    9.6668 H   0  0  0  0  0  0  0  0  0  0  0  0
   -7.5850    4.0120    5.6764 C   0  0  0  0  0  0  0  0  0  0  0  0
   -6.8165    2.8753    5.6475 N   0  0  0  0  0  0  0  0  0  0  0  0
   -7.2739    2.0180    4.7336 N   0  0  0  0  0  0  0  0  0  0  0  0
   -8.3531    2.6260    4.2185 C   0  0  0  0  0  0  0  0  0  0  0  0
   -9.2656    2.1801    3.3271 N   0  0  0  0  0  0  0  0  0  0  0  0
  -10.1476    3.2184    3.2894 C   0  0  0  0  0  0  0  0  0  0  0  0
  -11.3220    3.3710    2.5649 C   0  0  0  0  0  0  0  0  0  0  0  0
  -11.7404    2.4710    1.7904 O   0  0  0  0  0  0  0  0  0  0  0  0
  -12.0202    4.5338    2.7147 N   0  0  0  0  0  0  0  0  0  0  0  0
  -11.5684    5.5516    3.5191 C   0  0  0  0  0  0  0  0  0  0  0  0
  -12.2512    6.6095    3.6061 O   0  0  0  0  0  0  0  0  0  0  0  0
  -10.3833    5.4285    4.2149 N   0  0  0  0  0  0  0  0  0  0  0  0
   -9.8390    6.5651    4.9655 C   0  0  0  0  0  0  0  0  0  0  0  0
   -9.7342    4.2287    4.1326 C   0  0  0  0  0  0  0  0  0  0  0  0
   -8.6029    3.8124    4.7367 N   0  0  0  0  0  0  0  0  0  0  0  0
  -12.8714    4.6465    2.2329 H   0  0  0  0  0  0  0  0  0  0  0  0
   -9.3278    0.8650    2.6870 C   0  0  0  0  0  0  0  0  0  0  0  0
  -10.3369   -0.0174    3.3809 C   0  0  0  0  0  0  0  0  0  0  0  0
  -10.2052   -0.2812    4.7561 C   0  0  0  0  0  0  0  0  0  0  0  0
  -11.1318   -1.0955    5.4129 C   0  0  0  0  0  0  0  0  0  0  0  0
  -12.1920   -1.6629    4.7034 C   0  0  0  0  0  0  0  0  0  0  0  0
  -12.3241   -1.4219    3.3340 C   0  0  0  0  0  0  0  0  0  0  0  0
  -11.4008   -0.6073    2.6695 C   0  0  0  0  0  0  0  0  0  0  0  0
  -11.5439   -0.4060    1.3351 F   0  0  0  0  0  0  0  0  0  0  0  0
  -10.6792    4.5822    6.2207 C   0  0  0  0  0  0  0  0  0  0  0  0
  -11.0744    5.8854    5.9189 C   0  0  0  0  0  0  0  0  0  0  0  0
  -11.7663    6.1484    4.7362 C   0  0  0  0  0  0  0  0  0  0  0  0
  -12.0652    5.1080    3.8573 C   0  0  0  0  0  0  0  0  0  0  0  0
  -11.6709    3.8037    4.1591 C   0  0  0  0  0  0  0  0  0  0  0  0
  -10.9771    3.5419    5.3418 C   0  0  0  0  0  0  0  0  0  0  0  0
  -12.1517    7.4195    4.4415 O   0  0  0  0  0  0  0  0  0  0  0  0
  -11.9510    8.1188    5.0321 H   0  0  0  0  0  0  0  0  0  0  0  0
  1  2  2  0  0  0
  1 13  1  0  0  0
  1 17  1  0  0  0
  2  3  1  0  0  0
  3  4  2  0  0  0
  4  5  1  0  0  0
  4 14  1  0  0  0
  5  6  1  0  0  0
  5 13  2  0  0  0
  6  7  1  0  0  0
  7  8  2  0  0  0
  7 11  1  0  0  0
  8  9  1  0  0  0
  9 10  2  0  0  0
 10 11  1  0  0  0
 11 12  1  0  0  0
 12 13  1  0  0  0
 12 41  1  0  0  0
 41 42  2  0  0  0
 41 46  1  0  0  0
 42 43  1  0  0  0
 43 44  2  0  0  0
 43 47  1  0  0  0
 44 45  1  0  0  0
 45 46  2  0  0  0
 18 19  1  0  0  0
 19 20  2  0  0  0
 20 21  1  0  0  0
 21 33  1  0  0  0
 33 34  1  0  0  0
 34 35  2  0  0  0
 35 36  1  0  0  0
 36 37  2  0  0  0
 37 38  1  0  0  0
 38 39  2  0  0  0
 39 40  1  0  0  0
 21 22  1  0  0  0
 22 23  1  0  0  0
 23 24  2  0  0  0
 23 25  1  0  0  0
 25 26  1  0  0  0
 26 27  2  0  0  0
 26 28  1  0  0  0
 28 29  1  0  0  0
 28 30  1  0  0  0
 30 31  1  0  0  0
 31 20  1  0  0  0
 39 34  1  0  0  0
 30 22  2  0  0  0
 17 18  2  0  0  0
 17 31  1  0  0  0
  6 15  1  0  0  0
 47 48  1  0  0  0
 14 16  1  0  0  0
 25 32  1  0  0  0
M  END
>  <CNNaffinity>
9.05832

>  <CNNscore>
0.940894

>  <minimizedAffinity>
-6.49723

>  <minimizedRMSD>
0.47753

>  <molecular weight>
581.393

$$$$



 53 59  0  0  0  0  0  0  0  0999 V2000
   -7.9359    4.3884    6.4283 C   0  0  0  0  0  0  0  0  0  0  0  0
   -7.7102    3.0043    6.5018 C   0  0  0  0  0  0  0  0  0  0  0  0
   -7.7206    2.1964    5.4497 O   0  0  0  0  0  0  0  0  0  0  0  0
   -7.9844    2.6205    4.2189 C   0  0  0  0  0  0  0  0  0  0  0  0
   -7.9810    1.7004    3.1675 C   0  0  0  0  0  0  0  0  0  0  0  0
   -8.2535    2.1078    1.8601 C   0  0  0  0  0  0  0  0  0  0  0  0
   -8.5268    3.4631    1.6046 C   0  0  0  0  0  0  0  0  0  0  0  0
   -8.5369    4.4017    2.6471 C   0  0  0  0  0  0  0  0  0  0  0  0
   -8.8170    5.7383    2.3587 O   0  0  0  0  0  0  0  0  0  0  0  0
   -8.2658    3.9850    3.9721 C   0  0  0  0  0  0  0  0  0  0  0  0
   -8.2571    4.8695    5.0729 C   0  0  0  0  0  0  0  0  0  0  0  0
   -8.4721    6.1023    4.9102 O   0  0  0  0  0  0  0  0  0  0  0  0
   -8.9947    6.0000    1.4766 H   0  0  0  0  0  0  0  0  0  0  0  0
   -8.0042    5.2737    7.5684 C   0  0  0  0  0  0  0  0  0  0  0  0
   -6.8318    5.8860    7.8398 N   0  0  0  0  0  0  0  0  0  0  0  0
   -6.7517    6.7276    8.9046 N   0  0  0  0  0  0  0  0  0  0  0  0
   -7.8447    6.9271    9.6721 C   0  0  0  0  0  0  0  0  0  0  0  0
   -9.0640    6.3178    9.4301 C   0  0  0  0  0  0  0  0  0  0  0  0
  -10.1717    6.5279   10.2688 N   0  0  0  0  0  0  0  0  0  0  0  0
  -11.3342    5.8757   10.0730 C   0  0  0  0  0  0  0  0  0  0  0  0
  -12.4649    5.8521   10.7439 N   0  0  0  0  0  0  0  0  0  0  0  0
  -13.2815    4.9592   10.0805 N   0  0  0  0  0  0  0  0  0  0  0  0
  -12.6693    4.4438    9.0199 N   0  0  0  0  0  0  0  0  0  0  0  0
  -11.4657    5.0351    9.0003 N   0  0  0  0  0  0  0  0  0  0  0  0
  -10.4580    4.7641    7.9761 C   0  0  0  0  0  0  0  0  0  0  0  0
   -9.1512    5.4624    8.3241 C   0  0  0  0  0  0  0  0  0  0  0  0
   -7.6958    7.7748   10.7377 O   0  0  0  0  0  0  0  0  0  0  0  0
  -10.0967    7.1653   11.0153 H   0  0  0  0  0  0  0  0  0  0  0  0
   -6.8688    8.1852   10.8980 H   0  0  0  0  0  0  0  0  0  0  0  0
  -11.0106    5.2175    6.6603 C   0  0  0  0  0  0  0  0  0  0  0  0
  -10.6696    6.4724    6.1558 C   0  0  0  0  0  0  0  0  0  0  0  0
  -11.1839    6.8947    4.9295 C   0  0  0  0  0  0  0  0  0  0  0  0
  -12.0411    6.0632    4.2096 C   0  0  0  0  0  0  0  0  0  0  0  0
  -12.3834    4.8079    4.7143 C   0  0  0  0  0  0  0  0  0  0  0  0
  -11.8668    4.3857    5.9405 C   0  0  0  0  0  0  0  0  0  0  0  0
  -10.8513    8.1186    4.4372 O   0  0  0  0  0  0  0  0  0  0  0  0
  -10.2754    8.6775    4.9208 H   0  0  0  0  0  0  0  0  0  0  0  0
   -8.2491    1.1332    0.8497 O   0  0  0  0  0  0  0  0  0  0  0  0
   -8.7781    1.3109   -0.4715 C   0  0  0  0  0  0  0  0  0  0  0  0
  -10.1912    1.4288   -0.4529 O   0  0  0  0  0  0  0  0  0  0  0  0
  -10.8157    0.3517    0.2390 C   0  0  0  0  0  0  0  0  0  0  0  0
  -10.1910   -1.0431   -0.1045 C   0  0  0  0  0  0  0  0  0  0  0  0
  -11.1682   -2.0533   -0.1682 O   0  0  0  0  0  0  0  0  0  0  0  0
   -9.3816   -0.9981   -1.4163 C   0  0  0  0  0  0  0  0  0  0  0  0
  -10.2361   -0.9091   -2.5320 O   0  0  0  0  0  0  0  0  0  0  0  0
   -8.3427    0.1565   -1.4035 C   0  0  0  0  0  0  0  0  0  0  0  0
   -7.0843   -0.3233   -0.9995 O   0  0  0  0  0  0  0  0  0  0  0  0
  -11.7890   -1.8577   -0.8874 H   0  0  0  0  0  0  0  0  0  0  0  0
  -10.7443   -0.0842   -2.4850 H   0  0  0  0  0  0  0  0  0  0  0  0
   -7.1451   -0.6689   -0.0952 H   0  0  0  0  0  0  0  0  0  0  0  0
  -12.3287    0.4140   -0.0394 C   0  0  0  0  0  0  0  0  0  0  0  0
  -12.8350    1.6814    0.2863 O   0  0  0  0  0  0  0  0  0  0  0  0
  -12.6861    1.8566    1.2287 H   0  0  0  0  0  0  0  0  0  0  0  0
 14 15  2  0  0  0
 14 26  1  0  0  0
 14  1  1  0  0  0
 15 16  1  0  0  0
 16 17  2  0  0  0
 17 18  1  0  0  0
 17 27  1  0  0  0
 18 19  1  0  0  0
 18 26  2  0  0  0
 19 20  1  0  0  0
 20 21  2  0  0  0
 20 24  1  0  0  0
 21 22  1  0  0  0
 22 23  2  0  0  0
 23 24  1  0  0  0
 24 25  1  0  0  0
 25 26  1  0  0  0
 25 30  1  0  0  0
 30 31  2  0  0  0
 30 35  1  0  0  0
 31 32  1  0  0  0
 32 33  2  0  0  0
 32 36  1  0  0  0
 33 34  1  0  0  0
 34 35  2  0  0  0
  2  3  1  0  0  0
  3  4  1  0  0  0
  4  5  2  0  0  0
  5  6  1  0  0  0
  6 38  1  0  0  0
 38 39  1  0  0  0
 39 40  1  0  0  0
 40 41  1  0  0  0
 41 51  1  0  0  0
 51 52  1  0  0  0
 41 42  1  0  0  0
 42 43  1  0  0  0
 42 44  1  0  0  0
 44 45  1  0  0  0
 44 46  1  0  0  0
 46 47  1  0  0  0
  6  7  2  0  0  0
  7  8  1  0  0  0
  8  9  1  0  0  0
  8 10  2  0  0  0
 10 11  1  0  0  0
 11 12  2  0  0  0
 10  4  1  0  0  0
 46 39  1  0  0  0
  1  2  2  0  0  0
  1 11  1  0  0  0
 19 28  1  0  0  0
 36 37  1  0  0  0
 27 29  1  0  0  0
 52 53  1  0  0  0
 43 48  1  0  0  0
 45 49  1  0  0  0
 47 50  1  0  0  0
  9 13  1  0  0  0
M  END
>  <CNNaffinity>
9.00381

>  <CNNscore>
0.993641

>  <minimizedAffinity>
-1.5126

>  <minimizedRMSD>
1.86579

>  <molecular weight>
606.393

$$$$



 47 52  0  0  0  0  0  0  0  0999 V2000
   -7.6864    5.0282    6.8075 C   0  0  0  0  0  0  0  0  0  0  0  0
   -6.5508    5.7256    7.0247 N   0  0  0  0  0  0  0  0  0  0  0  0
   -6.4692    6.5431    8.1078 N   0  0  0  0  0  0  0  0  0  0  0  0
   -7.5230    6.6343    8.9472 C   0  0  0  0  0  0  0  0  0  0  0  0
   -8.7037    5.9354    8.7622 C   0  0  0  0  0  0  0  0  0  0  0  0
   -9.7686    6.0341    9.6738 N   0  0  0  0  0  0  0  0  0  0  0  0
  -10.8863    5.2958    9.5302 C   0  0  0  0  0  0  0  0  0  0  0  0
  -11.9663    5.1641   10.2686 N   0  0  0  0  0  0  0  0  0  0  0  0
  -12.7510    4.2257    9.6297 N   0  0  0  0  0  0  0  0  0  0  0  0
  -12.1693    3.7887    8.5180 N   0  0  0  0  0  0  0  0  0  0  0  0
  -11.0196    4.4752    8.4423 N   0  0  0  0  0  0  0  0  0  0  0  0
  -10.0614    4.3126    7.3500 C   0  0  0  0  0  0  0  0  0  0  0  0
   -8.7939    5.1044    7.6379 C   0  0  0  0  0  0  0  0  0  0  0  0
   -7.3734    7.4636   10.0271 O   0  0  0  0  0  0  0  0  0  0  0  0
   -9.6963    6.6560   10.4335 H   0  0  0  0  0  0  0  0  0  0  0  0
   -6.5727    7.9348   10.1485 H   0  0  0  0  0  0  0  0  0  0  0  0
   -7.6218    4.1808    5.6386 C   0  0  0  0  0  0  0  0  0  0  0  0
   -6.7290    3.1606    5.5368 N   0  0  0  0  0  0  0  0  0  0  0  0
   -6.6567    2.2640    4.5217 C   0  0  0  0  0  0  0  0  0  0  0  0
   -5.6221    1.2741    4.5510 N   0  0  0  0  0  0  0  0  0  0  0  0
   -7.6022    2.3141    3.4819 C   0  0  0  0  0  0  0  0  0  0  0  0
   -8.5913    3.3223    3.4976 C   0  0  0  0  0  0  0  0  0  0  0  0
   -8.6101    4.2727    4.5486 C   0  0  0  0  0  0  0  0  0  0  0  0
   -9.6112    5.4093    4.5383 C   0  0  0  0  0  0  0  0  0  0  0  0
   -4.9731    1.2621    5.2913 H   0  0  0  0  0  0  0  0  0  0  0  0
   -5.5598    0.6056    3.8310 H   0  0  0  0  0  0  0  0  0  0  0  0
   -9.6074    3.3758    2.4172 C   0  0  0  0  0  0  0  0  0  0  0  0
  -10.9293    2.9716    2.6704 C   0  0  0  0  0  0  0  0  0  0  0  0
  -11.2854    2.5193    3.8999 F   0  0  0  0  0  0  0  0  0  0  0  0
  -11.8868    3.0258    1.6515 C   0  0  0  0  0  0  0  0  0  0  0  0
  -13.1615    2.6340    1.8986 F   0  0  0  0  0  0  0  0  0  0  0  0
  -11.5310    3.4821    0.3782 C   0  0  0  0  0  0  0  0  0  0  0  0
  -12.4612    3.5336   -0.6075 F   0  0  0  0  0  0  0  0  0  0  0  0
  -10.2169    3.8854    0.1207 C   0  0  0  0  0  0  0  0  0  0  0  0
   -9.8746    4.3290   -1.1144 F   0  0  0  0  0  0  0  0  0  0  0  0
   -9.2553    3.8335    1.1357 C   0  0  0  0  0  0  0  0  0  0  0  0
   -7.9853    4.2365    0.8756 F   0  0  0  0  0  0  0  0  0  0  0  0
   -7.5704    1.3329    2.4179 C   0  0  0  0  0  0  0  0  0  0  0  0
   -7.5464    0.5494    1.5664 N   0  0  0  0  0  0  0  0  0  0  0  0
  -10.7310    4.7538    6.0854 C   0  0  0  0  0  0  0  0  0  0  0  0
  -11.0882    6.0914    5.9154 C   0  0  0  0  0  0  0  0  0  0  0  0
  -11.7115    6.5026    4.7369 C   0  0  0  0  0  0  0  0  0  0  0  0
  -11.9798    5.5760    3.7301 C   0  0  0  0  0  0  0  0  0  0  0  0
  -11.6236    4.2373    3.9000 C   0  0  0  0  0  0  0  0  0  0  0  0
  -10.9983    3.8272    5.0788 C   0  0  0  0  0  0  0  0  0  0  0  0
  -12.0599    7.8073    4.5707 O   0  0  0  0  0  0  0  0  0  0  0  0
  -11.8797    8.4301    5.2472 H   0  0  0  0  0  0  0  0  0  0  0  0
  1  2  2  0  0  0
  1 13  1  0  0  0
  1 17  1  0  0  0
  2  3  1  0  0  0
  3  4  2  0  0  0
  4  5  1  0  0  0
  4 14  1  0  0  0
  5  6  1  0  0  0
  5 13  2  0  0  0
  6  7  1  0  0  0
  7  8  2  0  0  0
  7 11  1  0  0  0
  8  9  1  0  0  0
  9 10  2  0  0  0
 10 11  1  0  0  0
 11 12  1  0  0  0
 12 13  1  0  0  0
 12 40  1  0  0  0
 40 41  2  0  0  0
 40 45  1  0  0  0
 41 42  1  0  0  0
 42 43  2  0  0  0
 42 46  1  0  0  0
 43 44  1  0  0  0
 44 45  2  0  0  0
 18 19  1  0  0  0
 19 20  1  0  0  0
 19 21  2  0  0  0
 21 38  1  0  0  0
 38 39  3  0  0  0
 21 22  1  0  0  0
 22 27  1  0  0  0
 27 28  2  0  0  0
 28 29  1  0  0  0
 28 30  1  0  0  0
 30 31  1  0  0  0
 30 32  2  0  0  0
 32 33  1  0  0  0
 32 34  1  0  0  0
 34 35  1  0  0  0
 34 36  2  0  0  0
 36 37  1  0  0  0
 22 23  2  0  0  0
 23 24  1  0  0  0
 36 27  1  0  0  0
 17 18  2  0  0  0
 17 23  1  0  0  0
  6 15  1  0  0  0
 46 47  1  0  0  0
 14 16  1  0  0  0
 20 25  1  0  0  0
 20 26  1  0  0  0
M  END
>  <CNNaffinity>
8.95065

>  <CNNscore>
0.937288

>  <minimizedAffinity>
-6.98265

>  <minimizedRMSD>
0.84125

>  <molecular weight>
572.365

$$$$



 47 52  0  0  0  0  0  0  0  0999 V2000
   -7.6564    5.0340    6.7991 C   0  0  0  0  0  0  0  0  0  0  0  0
   -6.5299    5.7425    7.0274 N   0  0  0  0  0  0  0  0  0  0  0  0
   -6.4731    6.5737    8.1017 N   0  0  0  0  0  0  0  0  0  0  0  0
   -7.5421    6.6671    8.9214 C   0  0  0  0  0  0  0  0  0  0  0  0
   -8.7142    5.9571    8.7246 C   0  0  0  0  0  0  0  0  0  0  0  0
   -9.7955    6.0589    9.6163 N   0  0  0  0  0  0  0  0  0  0  0  0
  -10.9051    5.3105    9.4624 C   0  0  0  0  0  0  0  0  0  0  0  0
  -11.9969    5.1796   10.1835 N   0  0  0  0  0  0  0  0  0  0  0  0
  -12.7634    4.2277    9.5427 N   0  0  0  0  0  0  0  0  0  0  0  0
  -12.1592    3.7816    8.4466 N   0  0  0  0  0  0  0  0  0  0  0  0
  -11.0135    4.4758    8.3825 N   0  0  0  0  0  0  0  0  0  0  0  0
  -10.0352    4.3072    7.3090 C   0  0  0  0  0  0  0  0  0  0  0  0
   -8.7787    5.1120    7.6092 C   0  0  0  0  0  0  0  0  0  0  0  0
   -7.4174    7.5105    9.9935 O   0  0  0  0  0  0  0  0  0  0  0  0
   -9.7410    6.6905   10.3695 H   0  0  0  0  0  0  0  0  0  0  0  0
   -6.6224    7.9892   10.1231 H   0  0  0  0  0  0  0  0  0  0  0  0
   -7.5651    4.1730    5.6419 C   0  0  0  0  0  0  0  0  0  0  0  0
   -6.6520    3.1699    5.5623 N   0  0  0  0  0  0  0  0  0  0  0  0
   -6.5505    2.2627    4.5592 C   0  0  0  0  0  0  0  0  0  0  0  0
   -5.4975    1.2952    4.6112 N   0  0  0  0  0  0  0  0  0  0  0  0
   -7.4819    2.2843    3.5071 C   0  0  0  0  0  0  0  0  0  0  0  0
   -8.4824    3.2802    3.4938 C   0  0  0  0  0  0  0  0  0  0  0  0
   -8.5374    4.2378    4.5361 C   0  0  0  0  0  0  0  0  0  0  0  0
   -9.5596    5.3560    4.4996 C   0  0  0  0  0  0  0  0  0  0  0  0
   -4.8585    1.3029    5.3601 H   0  0  0  0  0  0  0  0  0  0  0  0
   -5.4120    0.6218    3.8981 H   0  0  0  0  0  0  0  0  0  0  0  0
   -9.4625    3.3186    2.3823 C   0  0  0  0  0  0  0  0  0  0  0  0
   -9.1295    3.9462    1.1706 C   0  0  0  0  0  0  0  0  0  0  0  0
   -7.9094    4.5192    1.0073 F   0  0  0  0  0  0  0  0  0  0  0  0
  -10.0539    3.9799    0.1212 C   0  0  0  0  0  0  0  0  0  0  0  0
   -9.7292    4.5836   -1.0489 F   0  0  0  0  0  0  0  0  0  0  0  0
  -11.3098    3.3858    0.2748 C   0  0  0  0  0  0  0  0  0  0  0  0
  -12.2015    3.4164   -0.7458 F   0  0  0  0  0  0  0  0  0  0  0  0
  -11.6433    2.7515    1.4769 C   0  0  0  0  0  0  0  0  0  0  0  0
  -12.8562    2.1582    1.6165 F   0  0  0  0  0  0  0  0  0  0  0  0
  -10.7234    2.7171    2.5305 C   0  0  0  0  0  0  0  0  0  0  0  0
  -11.0533    2.0931    3.6907 F   0  0  0  0  0  0  0  0  0  0  0  0
   -7.4144    1.2968    2.4507 C   0  0  0  0  0  0  0  0  0  0  0  0
   -7.3586    0.5062    1.6060 N   0  0  0  0  0  0  0  0  0  0  0  0
  -10.6858    4.7280    6.0277 C   0  0  0  0  0  0  0  0  0  0  0  0
  -11.0433    6.0620    5.8324 C   0  0  0  0  0  0  0  0  0  0  0  0
  -11.6490    6.4542    4.6382 C   0  0  0  0  0  0  0  0  0  0  0  0
  -11.8994    5.5121    3.6412 C   0  0  0  0  0  0  0  0  0  0  0  0
  -11.5428    4.1770    3.8364 C   0  0  0  0  0  0  0  0  0  0  0  0
  -10.9352    3.7859    5.0309 C   0  0  0  0  0  0  0  0  0  0  0  0
  -11.9978    7.7554    4.4474 O   0  0  0  0  0  0  0  0  0  0  0  0
  -11.8296    8.3886    5.1172 H   0  0  0  0  0  0  0  0  0  0  0  0
  1  2  2  0  0  0
  1 13  1  0  0  0
  1 17  1  0  0  0
  2  3  1  0  0  0
  3  4  2  0  0  0
  4  5  1  0  0  0
  4 14  1  0  0  0
  5  6  1  0  0  0
  5 13  2  0  0  0
  6  7  1  0  0  0
  7  8  2  0  0  0
  7 11  1  0  0  0
  8  9  1  0  0  0
  9 10  2  0  0  0
 10 11  1  0  0  0
 11 12  1  0  0  0
 12 13  1  0  0  0
 12 40  1  0  0  0
 40 41  2  0  0  0
 40 45  1  0  0  0
 41 42  1  0  0  0
 42 43  2  0  0  0
 42 46  1  0  0  0
 43 44  1  0  0  0
 44 45  2  0  0  0
 18 19  1  0  0  0
 19 20  1  0  0  0
 19 21  2  0  0  0
 21 38  1  0  0  0
 38 39  3  0  0  0
 21 22  1  0  0  0
 22 27  1  0  0  0
 27 28  2  0  0  0
 28 29  1  0  0  0
 28 30  1  0  0  0
 30 31  1  0  0  0
 30 32  2  0  0  0
 32 33  1  0  0  0
 32 34  1  0  0  0
 34 35  1  0  0  0
 34 36  2  0  0  0
 36 37  1  0  0  0
 22 23  2  0  0  0
 23 24  1  0  0  0
 36 27  1  0  0  0
 17 18  2  0  0  0
 17 23  1  0  0  0
  6 15  1  0  0  0
 46 47  1  0  0  0
 14 16  1  0  0  0
 20 25  1  0  0  0
 20 26  1  0  0  0
M  END
>  <CNNaffinity>
8.91693

>  <CNNscore>
0.937143

>  <minimizedAffinity>
-7.01612

>  <minimizedRMSD>
0.88263

>  <molecular weight>
572.365

$$$$



 47 54  0  0  0  0  0  0  0  0999 V2000
   -7.9088    5.0979    7.0521 C   0  0  0  0  0  0  0  0  0  0  0  0
   -6.7261    5.7401    7.1611 N   0  0  0  0  0  0  0  0  0  0  0  0
   -6.5320    6.6064    8.1907 N   0  0  0  0  0  0  0  0  0  0  0  0
   -7.5239    6.8003    9.0863 C   0  0  0  0  0  0  0  0  0  0  0  0
   -8.7495    6.1608    9.0123 C   0  0  0  0  0  0  0  0  0  0  0  0
   -9.7473    6.3666    9.9802 N   0  0  0  0  0  0  0  0  0  0  0  0
  -10.9097    5.6864    9.9456 C   0  0  0  0  0  0  0  0  0  0  0  0
  -11.9459    5.6543   10.7545 N   0  0  0  0  0  0  0  0  0  0  0  0
  -12.8187    4.7304   10.2171 N   0  0  0  0  0  0  0  0  0  0  0  0
  -12.3333    4.2043    9.0977 N   0  0  0  0  0  0  0  0  0  0  0  0
  -11.1558    4.8198    8.9146 N   0  0  0  0  0  0  0  0  0  0  0  0
  -10.2792    4.5470    7.7766 C   0  0  0  0  0  0  0  0  0  0  0  0
   -8.9555    5.2795    7.9429 C   0  0  0  0  0  0  0  0  0  0  0  0
   -7.2616    7.6743   10.1079 O   0  0  0  0  0  0  0  0  0  0  0  0
   -9.5936    7.0217   10.6988 H   0  0  0  0  0  0  0  0  0  0  0  0
   -6.4307    8.1050   10.1544 H   0  0  0  0  0  0  0  0  0  0  0  0
   -7.9642    4.1892    5.9297 C   0  0  0  0  0  0  0  0  0  0  0  0
   -9.0769    4.2798    4.9904 C   0  0  0  0  0  0  0  0  0  0  0  0
   -9.9735    5.2908    5.1244 F   0  0  0  0  0  0  0  0  0  0  0  0
   -9.1898    3.4195    3.9043 C   0  0  0  0  0  0  0  0  0  0  0  0
   -8.2665    2.3739    3.7084 C   0  0  0  0  0  0  0  0  0  0  0  0
   -8.3570    1.5369    2.5746 C   0  0  0  0  0  0  0  0  0  0  0  0
   -9.3177    1.7156    1.7090 N   0  0  0  0  0  0  0  0  0  0  0  0
   -7.3957    0.5360    2.3979 C   0  0  0  0  0  0  0  0  0  0  0  0
   -6.4112    0.3390    3.3566 C   0  0  0  0  0  0  0  0  0  0  0  0
   -6.3673    1.0887    4.4991 N   0  0  0  0  0  0  0  0  0  0  0  0
   -7.2225    2.1663    4.6572 C   0  0  0  0  0  0  0  0  0  0  0  0
   -7.0929    3.0939    5.7298 C   0  0  0  0  0  0  0  0  0  0  0  0
   -6.0591    3.0223    6.6064 F   0  0  0  0  0  0  0  0  0  0  0  0
   -5.3417    0.7315    5.4980 C   0  0  0  0  0  0  0  0  0  0  0  0
   -5.2822   -0.7518    5.8693 C   0  0  0  0  0  0  0  0  0  0  0  0
   -5.9108    0.2382    6.8261 C   0  0  0  0  0  0  0  0  0  0  0  0
   -9.5937    0.7607    0.2402 S   0  0  0  0  0  0  0  0  0  0  0  0
  -10.6515   -0.3948    1.1046 C   0  0  0  0  0  0  0  0  0  0  0  0
  -12.0278   -0.1613    1.1938 C   0  0  0  0  0  0  0  0  0  0  0  0
  -12.8307   -1.0727    1.8830 C   0  0  0  0  0  0  0  0  0  0  0  0
  -12.2539   -2.2005    2.4711 C   0  0  0  0  0  0  0  0  0  0  0  0
  -10.8755   -2.3997    2.3589 C   0  0  0  0  0  0  0  0  0  0  0  0
  -10.1104   -1.5006    1.6840 N   0  0  0  0  0  0  0  0  0  0  0  0
  -11.0036    4.9598    6.5328 C   0  0  0  0  0  0  0  0  0  0  0  0
  -11.2826    6.3069    6.3027 C   0  0  0  0  0  0  0  0  0  0  0  0
  -11.9570    6.6916    5.1434 C   0  0  0  0  0  0  0  0  0  0  0  0
  -12.3545    5.7290    4.2162 C   0  0  0  0  0  0  0  0  0  0  0  0
  -12.0765    4.3809    4.4463 C   0  0  0  0  0  0  0  0  0  0  0  0
  -11.4001    3.9972    5.6056 C   0  0  0  0  0  0  0  0  0  0  0  0
  -12.2291    8.0056    4.9187 O   0  0  0  0  0  0  0  0  0  0  0  0
  -11.9621    8.6526    5.5417 H   0  0  0  0  0  0  0  0  0  0  0  0
  1  2  2  0  0  0
  1 13  1  0  0  0
  1 17  1  0  0  0
  2  3  1  0  0  0
  3  4  2  0  0  0
  4  5  1  0  0  0
  4 14  1  0  0  0
  5  6  1  0  0  0
  5 13  2  0  0  0
  6  7  1  0  0  0
  7  8  2  0  0  0
  7 11  1  0  0  0
  8  9  1  0  0  0
  9 10  2  0  0  0
 10 11  1  0  0  0
 11 12  1  0  0  0
 12 13  1  0  0  0
 12 40  1  0  0  0
 40 41  2  0  0  0
 40 45  1  0  0  0
 41 42  1  0  0  0
 42 43  2  0  0  0
 42 46  1  0  0  0
 43 44  1  0  0  0
 44 45  2  0  0  0
 18 19  1  0  0  0
 18 20  1  0  0  0
 20 21  2  0  0  0
 21 22  1  0  0  0
 22 23  2  0  0  0
 23 33  1  0  0  0
 33 34  1  0  0  0
 34 35  2  0  0  0
 35 36  1  0  0  0
 36 37  2  0  0  0
 37 38  1  0  0  0
 38 39  2  0  0  0
 22 24  1  0  0  0
 24 25  2  0  0  0
 25 26  1  0  0  0
 26 30  1  0  0  0
 30 31  1  0  0  0
 31 32  1  0  0  0
 26 27  1  0  0  0
 27 28  2  0  0  0
 28 29  1  0  0  0
 27 21  1  0  0  0
 39 34  1  0  0  0
 32 30  1  0  0  0
 17 18  2  0  0  0
 17 28  1  0  0  0
  6 15  1  0  0  0
 46 47  1  0  0  0
 14 16  1  0  0  0
M  END
>  <CNNaffinity>
8.87321

>  <CNNscore>
0.966729

>  <minimizedAffinity>
-5.8491

>  <minimizedRMSD>
0.34128

>  <molecular weight>
593.462

$$$$



 43 48  0  0  0  0  0  0  0  0999 V2000
   -7.6490    4.9864    6.8345 C   0  0  0  0  0  0  0  0  0  0  0  0
   -6.4580    5.6177    6.9128 N   0  0  0  0  0  0  0  0  0  0  0  0
   -6.2508    6.5267    7.9023 N   0  0  0  0  0  0  0  0  0  0  0  0
   -7.2381    6.7731    8.7898 C   0  0  0  0  0  0  0  0  0  0  0  0
   -8.4719    6.1467    8.7464 C   0  0  0  0  0  0  0  0  0  0  0  0
   -9.4649    6.4083    9.7056 N   0  0  0  0  0  0  0  0  0  0  0  0
  -10.6360    5.7421    9.7034 C   0  0  0  0  0  0  0  0  0  0  0  0
  -11.6708    5.7595   10.5146 N   0  0  0  0  0  0  0  0  0  0  0  0
  -12.5563    4.8235   10.0205 N   0  0  0  0  0  0  0  0  0  0  0  0
  -12.0799    4.2418    8.9250 N   0  0  0  0  0  0  0  0  0  0  0  0
  -10.8952    4.8333    8.7127 N   0  0  0  0  0  0  0  0  0  0  0  0
  -10.0246    4.4987    7.5867 C   0  0  0  0  0  0  0  0  0  0  0  0
   -8.6913    5.2211    7.7179 C   0  0  0  0  0  0  0  0  0  0  0  0
   -6.9626    7.6886    9.7708 O   0  0  0  0  0  0  0  0  0  0  0  0
   -9.3015    7.0929   10.3940 H   0  0  0  0  0  0  0  0  0  0  0  0
   -6.1263    8.1103    9.7966 H   0  0  0  0  0  0  0  0  0  0  0  0
   -7.7182    4.0291    5.7541 C   0  0  0  0  0  0  0  0  0  0  0  0
   -6.7569    3.1572    5.3667 N   0  0  0  0  0  0  0  0  0  0  0  0
   -7.2640    2.4566    4.3327 C   0  0  0  0  0  0  0  0  0  0  0  0
   -6.5880    1.4824    3.6003 C   0  0  0  0  0  0  0  0  0  0  0  0
   -4.9351    1.0312    3.9834 Cl  0  0  0  0  0  0  0  0  0  0  0  0
   -7.2663    0.8788    2.5303 C   0  0  0  0  0  0  0  0  0  0  0  0
   -8.5967    1.2465    2.2209 C   0  0  0  0  0  0  0  0  0  0  0  0
   -9.2139    2.2579    2.9845 C   0  0  0  0  0  0  0  0  0  0  0  0
   -8.5235    2.8056    4.0206 N   0  0  0  0  0  0  0  0  0  0  0  0
   -8.8681    3.7749    4.8892 C   0  0  0  0  0  0  0  0  0  0  0  0
  -10.1749    4.5289    4.8633 C   0  0  0  0  0  0  0  0  0  0  0  0
  -11.2623    3.7157    5.4091 N   0  0  0  0  0  0  0  0  0  0  0  0
  -11.3724    2.8727    4.8454 H   0  0  0  0  0  0  0  0  0  0  0  0
  -12.1297    4.2520    5.3917 H   0  0  0  0  0  0  0  0  0  0  0  0
  -11.0427    3.4554    6.3706 H   0  0  0  0  0  0  0  0  0  0  0  0
   -9.3035    0.6424    1.0349 C   0  0  0  0  0  0  0  0  0  0  0  0
   -8.8783   -0.6579    0.8243 F   0  0  0  0  0  0  0  0  0  0  0  0
   -9.0274    1.3950   -0.0912 F   0  0  0  0  0  0  0  0  0  0  0  0
  -10.6722    0.6227    1.2404 F   0  0  0  0  0  0  0  0  0  0  0  0
  -10.7463    4.8645    6.3268 C   0  0  0  0  0  0  0  0  0  0  0  0
  -11.0182    6.2027    6.0422 C   0  0  0  0  0  0  0  0  0  0  0  0
  -11.6901    6.5436    4.8679 C   0  0  0  0  0  0  0  0  0  0  0  0
  -12.0923    5.5464    3.9802 C   0  0  0  0  0  0  0  0  0  0  0  0
  -11.8214    4.2072    4.2648 C   0  0  0  0  0  0  0  0  0  0  0  0
  -11.1475    3.8673    5.4391 C   0  0  0  0  0  0  0  0  0  0  0  0
  -11.9553    7.8489    4.5900 O   0  0  0  0  0  0  0  0  0  0  0  0
  -11.6852    8.5191    5.1864 H   0  0  0  0  0  0  0  0  0  0  0  0
  1  2  2  0  0  0
  1 13  1  0  0  0
  1 17  1  0  0  0
  2  3  1  0  0  0
  3  4  2  0  0  0
  4  5  1  0  0  0
  4 14  1  0  0  0
  5  6  1  0  0  0
  5 13  2  0  0  0
  6  7  1  0  0  0
  7  8  2  0  0  0
  7 11  1  0  0  0
  8  9  1  0  0  0
  9 10  2  0  0  0
 10 11  1  0  0  0
 11 12  1  0  0  0
 12 13  1  0  0  0
 12 36  1  0  0  0
 36 37  2  0  0  0
 36 41  1  0  0  0
 37 38  1  0  0  0
 38 39  2  0  0  0
 38 42  1  0  0  0
 39 40  1  0  0  0
 40 41  2  0  0  0
 18 19  2  0  0  0
 19 20  1  0  0  0
 20 21  1  0  0  0
 20 22  2  0  0  0
 22 23  1  0  0  0
 23 32  1  0  0  0
 32 33  1  0  0  0
 32 34  1  0  0  0
 32 35  1  0  0  0
 23 24  2  0  0  0
 24 25  1  0  0  0
 25 26  1  0  0  0
 26 27  1  0  0  0
 27 28  1  0  0  0
 25 19  1  0  0  0
 17 18  1  0  0  0
 17 26  2  0  0  0
  6 15  1  0  0  0
 42 43  1  0  0  0
 14 16  1  0  0  0
 28 29  1  0  0  0
 28 30  1  0  0  0
 28 31  1  0  0  0
M  CHG 1  28   1
M  END
>  <CNNaffinity>
8.83188

>  <CNNscore>
0.958588

>  <minimizedAffinity>
-7.3555

>  <minimizedRMSD>
0.04078

>  <molecular weight>
522.786

$$$$



 47 54  0  0  0  0  0  0  0  0999 V2000
   -7.6410    4.9930    6.8080 C   0  0  0  0  0  0  0  0  0  0  0  0
   -6.4520    5.6300    6.8680 N   0  0  0  0  0  0  0  0  0  0  0  0
   -6.2260    6.5240    7.8670 N   0  0  0  0  0  0  0  0  0  0  0  0
   -7.1930    6.7500    8.7820 C   0  0  0  0  0  0  0  0  0  0  0  0
   -8.4240    6.1170    8.7580 C   0  0  0  0  0  0  0  0  0  0  0  0
   -9.3950    6.3570    9.7450 N   0  0  0  0  0  0  0  0  0  0  0  0
  -10.5620    5.6840    9.7600 C   0  0  0  0  0  0  0  0  0  0  0  0
  -11.5770    5.6820   10.5960 N   0  0  0  0  0  0  0  0  0  0  0  0
  -12.4690    4.7490   10.1080 N   0  0  0  0  0  0  0  0  0  0  0  0
  -12.0160    4.1880    8.9920 N   0  0  0  0  0  0  0  0  0  0  0  0
  -10.8400    4.7900    8.7610 N   0  0  0  0  0  0  0  0  0  0  0  0
   -9.9950    4.4790    7.6090 C   0  0  0  0  0  0  0  0  0  0  0  0
   -8.6630    5.2070    7.7200 C   0  0  0  0  0  0  0  0  0  0  0  0
   -6.8990    7.6510    9.7710 O   0  0  0  0  0  0  0  0  0  0  0  0
   -9.2187    7.0313   10.4403 H   0  0  0  0  0  0  0  0  0  0  0  0
   -6.0646    8.0772    9.7836 H   0  0  0  0  0  0  0  0  0  0  0  0
   -7.7310    4.0530    5.7140 C   0  0  0  0  0  0  0  0  0  0  0  0
   -8.8994    4.0829    4.8361 C   0  0  0  0  0  0  0  0  0  0  0  0
   -9.8111    5.0786    4.9813 F   0  0  0  0  0  0  0  0  0  0  0  0
   -9.0822    3.1450    3.8260 C   0  0  0  0  0  0  0  0  0  0  0  0
   -8.1459    2.1138    3.6158 C   0  0  0  0  0  0  0  0  0  0  0  0
   -8.3604    1.1379    2.6180 C   0  0  0  0  0  0  0  0  0  0  0  0
   -9.4256    1.1993    1.8661 N   0  0  0  0  0  0  0  0  0  0  0  0
   -7.4226    0.1101    2.4683 C   0  0  0  0  0  0  0  0  0  0  0  0
   -6.2764    0.0935    3.2517 C   0  0  0  0  0  0  0  0  0  0  0  0
   -6.0211    1.0803    4.1628 N   0  0  0  0  0  0  0  0  0  0  0  0
   -6.9755    2.0478    4.4265 C   0  0  0  0  0  0  0  0  0  0  0  0
   -6.8417    2.9788    5.4945 C   0  0  0  0  0  0  0  0  0  0  0  0
   -5.8491    2.8594    6.4133 F   0  0  0  0  0  0  0  0  0  0  0  0
   -4.7271    1.0239    4.8696 C   0  0  0  0  0  0  0  0  0  0  0  0
   -3.8099    2.2116    4.5889 C   0  0  0  0  0  0  0  0  0  0  0  0
   -3.5018    0.8660    3.9678 C   0  0  0  0  0  0  0  0  0  0  0  0
   -9.8533    0.0743    0.5637 S   0  0  0  0  0  0  0  0  0  0  0  0
   -9.0084    1.0633   -0.6645 C   0  0  0  0  0  0  0  0  0  0  0  0
   -9.6882    2.0821   -1.3404 C   0  0  0  0  0  0  0  0  0  0  0  0
   -9.0035    2.8473   -2.2869 C   0  0  0  0  0  0  0  0  0  0  0  0
   -7.6561    2.5876   -2.5471 C   0  0  0  0  0  0  0  0  0  0  0  0
   -7.0120    1.5604   -1.8526 C   0  0  0  0  0  0  0  0  0  0  0  0
   -7.6959    0.8265   -0.9343 N   0  0  0  0  0  0  0  0  0  0  0  0
  -10.7490    4.8610    6.3730 C   0  0  0  0  0  0  0  0  0  0  0  0
  -11.0350    6.2020    6.1170 C   0  0  0  0  0  0  0  0  0  0  0  0
  -11.7370    6.5580    4.9650 C   0  0  0  0  0  0  0  0  0  0  0  0
  -12.1550    5.5730    4.0710 C   0  0  0  0  0  0  0  0  0  0  0  0
  -11.8700    4.2310    4.3270 C   0  0  0  0  0  0  0  0  0  0  0  0
  -11.1660    3.8760    5.4790 C   0  0  0  0  0  0  0  0  0  0  0  0
  -12.0160    7.8660    4.7150 O   0  0  0  0  0  0  0  0  0  0  0  0
  -11.7352    8.5280    5.3157 H   0  0  0  0  0  0  0  0  0  0  0  0
  1  2  2  0  0  0
  1 13  1  0  0  0
  1 17  1  0  0  0
  2  3  1  0  0  0
  3  4  2  0  0  0
  4  5  1  0  0  0
  4 14  1  0  0  0
  5  6  1  0  0  0
  5 13  2  0  0  0
  6  7  1  0  0  0
  7  8  2  0  0  0
  7 11  1  0  0  0
  8  9  1  0  0  0
  9 10  2  0  0  0
 10 11  1  0  0  0
 11 12  1  0  0  0
 12 13  1  0  0  0
 12 40  1  0  0  0
 40 41  2  0  0  0
 40 45  1  0  0  0
 41 42  1  0  0  0
 42 43  2  0  0  0
 42 46  1  0  0  0
 43 44  1  0  0  0
 44 45  2  0  0  0
 18 19  1  0  0  0
 18 20  1  0  0  0
 20 21  2  0  0  0
 21 22  1  0  0  0
 22 23  2  0  0  0
 23 33  1  0  0  0
 33 34  1  0  0  0
 34 35  2  0  0  0
 35 36  1  0  0  0
 36 37  2  0  0  0
 37 38  1  0  0  0
 38 39  2  0  0  0
 22 24  1  0  0  0
 24 25  2  0  0  0
 25 26  1  0  0  0
 26 30  1  0  0  0
 30 31  1  0  0  0
 31 32  1  0  0  0
 26 27  1  0  0  0
 27 28  2  0  0  0
 28 29  1  0  0  0
 27 21  1  0  0  0
 39 34  1  0  0  0
 32 30  1  0  0  0
 17 18  2  0  0  0
 17 28  1  0  0  0
  6 15  1  0  0  0
 46 47  1  0  0  0
 14 16  1  0  0  0
M  END
>  <CNNaffinity>
8.78373

>  <CNNscore>
0.955504

>  <minimizedAffinity>
-7.17916

>  <minimizedRMSD>
0

>  <molecular weight>
593.462

$$$$



 47 54  0  0  0  0  0  0  0  0999 V2000
   -7.6410    4.9930    6.8080 C   0  0  0  0  0  0  0  0  0  0  0  0
   -6.4520    5.6300    6.8680 N   0  0  0  0  0  0  0  0  0  0  0  0
   -6.2260    6.5240    7.8670 N   0  0  0  0  0  0  0  0  0  0  0  0
   -7.1930    6.7500    8.7820 C   0  0  0  0  0  0  0  0  0  0  0  0
   -8.4240    6.1170    8.7580 C   0  0  0  0  0  0  0  0  0  0  0  0
   -9.3950    6.3570    9.7450 N   0  0  0  0  0  0  0  0  0  0  0  0
  -10.5620    5.6840    9.7600 C   0  0  0  0  0  0  0  0  0  0  0  0
  -11.5770    5.6820   10.5960 N   0  0  0  0  0  0  0  0  0  0  0  0
  -12.4690    4.7490   10.1080 N   0  0  0  0  0  0  0  0  0  0  0  0
  -12.0160    4.1880    8.9920 N   0  0  0  0  0  0  0  0  0  0  0  0
  -10.8400    4.7900    8.7610 N   0  0  0  0  0  0  0  0  0  0  0  0
   -9.9950    4.4790    7.6090 C   0  0  0  0  0  0  0  0  0  0  0  0
   -8.6630    5.2070    7.7200 C   0  0  0  0  0  0  0  0  0  0  0  0
   -6.8990    7.6510    9.7710 O   0  0  0  0  0  0  0  0  0  0  0  0
   -9.2187    7.0313   10.4403 H   0  0  0  0  0  0  0  0  0  0  0  0
   -6.0646    8.0772    9.7836 H   0  0  0  0  0  0  0  0  0  0  0  0
   -7.7310    4.0530    5.7140 C   0  0  0  0  0  0  0  0  0  0  0  0
   -6.7496    3.2214    5.3919 O   0  0  0  0  0  0  0  0  0  0  0  0
   -6.7936    2.2788    4.4561 C   0  0  0  0  0  0  0  0  0  0  0  0
   -5.6608    1.5009    4.2089 C   0  0  0  0  0  0  0  0  0  0  0  0
   -5.6828    0.4886    3.2355 C   0  0  0  0  0  0  0  0  0  0  0  0
   -4.4357   -0.3193    2.9871 C   0  0  0  0  0  0  0  0  0  0  0  0
   -6.8614    0.2730    2.4820 C   0  0  0  0  0  0  0  0  0  0  0  0
   -6.9277   -0.8013    1.4276 C   0  0  0  0  0  0  0  0  0  0  0  0
   -8.0021    1.0530    2.7408 C   0  0  0  0  0  0  0  0  0  0  0  0
   -7.9746    2.0582    3.7217 C   0  0  0  0  0  0  0  0  0  0  0  0
   -9.0858    2.8728    3.9904 C   0  0  0  0  0  0  0  0  0  0  0  0
  -10.1640    2.7250    3.3520 O   0  0  0  0  0  0  0  0  0  0  0  0
   -8.9880    3.8762    4.9607 C   0  0  0  0  0  0  0  0  0  0  0  0
  -10.0701    4.7435    5.1592 O   0  0  0  0  0  0  0  0  0  0  0  0
  -10.0269    6.1127    4.7605 C   0  0  0  0  0  0  0  0  0  0  0  0
   -9.9472    6.2075    3.2698 C   0  0  0  0  0  0  0  0  0  0  0  0
   -8.8221    6.6114    2.5479 C   0  0  0  0  0  0  0  0  0  0  0  0
   -9.1562    6.4610    1.2652 N   0  0  0  0  0  0  0  0  0  0  0  0
   -8.5678    6.6095    0.0603 C   0  0  0  0  0  0  0  0  0  0  0  0
   -9.4307    6.2352   -0.9808 C   0  0  0  0  0  0  0  0  0  0  0  0
  -10.9281    5.7096   -0.3256 S   0  0  0  0  0  0  0  0  0  0  0  0
  -10.3884    6.0015    1.2328 C   0  0  0  0  0  0  0  0  0  0  0  0
  -10.9514    5.8071    2.4383 N   0  0  0  0  0  0  0  0  0  0  0  0
  -10.7490    4.8610    6.3730 C   0  0  0  0  0  0  0  0  0  0  0  0
  -11.0350    6.2020    6.1170 C   0  0  0  0  0  0  0  0  0  0  0  0
  -11.7370    6.5580    4.9650 C   0  0  0  0  0  0  0  0  0  0  0  0
  -12.1550    5.5730    4.0710 C   0  0  0  0  0  0  0  0  0  0  0  0
  -11.8700    4.2310    4.3270 C   0  0  0  0  0  0  0  0  0  0  0  0
  -11.1660    3.8760    5.4790 C   0  0  0  0  0  0  0  0  0  0  0  0
  -12.0160    7.8660    4.7150 O   0  0  0  0  0  0  0  0  0  0  0  0
  -11.7352    8.5280    5.3157 H   0  0  0  0  0  0  0  0  0  0  0  0
  1  2  2  0  0  0
  1 13  1  0  0  0
  1 17  1  0  0  0
  2  3  1  0  0  0
  3  4  2  0  0  0
  4  5  1  0  0  0
  4 14  1  0  0  0
  5  6  1  0  0  0
  5 13  2  0  0  0
  6  7  1  0  0  0
  7  8  2  0  0  0
  7 11  1  0  0  0
  8  9  1  0  0  0
  9 10  2  0  0  0
 10 11  1  0  0  0
 11 12  1  0  0  0
 12 13  1  0  0  0
 12 40  1  0  0  0
 40 41  2  0  0  0
 40 45  1  0  0  0
 41 42  1  0  0  0
 42 43  2  0  0  0
 42 46  1  0  0  0
 43 44  1  0  0  0
 44 45  2  0  0  0
 18 19  1  0  0  0
 19 20  2  0  0  0
 20 21  1  0  0  0
 21 22  1  0  0  0
 21 23  2  0  0  0
 23 24  1  0  0  0
 23 25  1  0  0  0
 25 26  2  0  0  0
 26 27  1  0  0  0
 27 28  2  0  0  0
 27 29  1  0  0  0
 29 30  1  0  0  0
 30 31  1  0  0  0
 31 32  1  0  0  0
 32 33  2  0  0  0
 33 34  1  0  0  0
 34 35  1  0  0  0
 35 36  2  0  0  0
 36 37  1  0  0  0
 37 38  1  0  0  0
 38 39  2  0  0  0
 39 32  1  0  0  0
 26 19  1  0  0  0
 38 34  1  0  0  0
 17 18  1  0  0  0
 17 29  2  0  0  0
  6 15  1  0  0  0
 46 47  1  0  0  0
 14 16  1  0  0  0
M  END
>  <CNNaffinity>
8.78028

>  <CNNscore>
0.887189

>  <minimizedAffinity>
-7.57829

>  <minimizedRMSD>
0

>  <molecular weight>
589.456

$$$$



 54 60  0  0  0  0  0  0  0  0999 V2000
   -7.7310    4.0530    5.7140 C   0  0  0  0  0  0  0  0  0  0  0  0
   -7.0943    2.7697    5.7227 C   0  0  0  0  0  0  0  0  0  0  0  0
   -7.2076    1.9060    4.6807 N   0  0  0  0  0  0  0  0  0  0  0  0
   -7.9827    2.1913    3.6050 C   0  0  0  0  0  0  0  0  0  0  0  0
   -8.0921    1.2547    2.5362 N   0  0  0  0  0  0  0  0  0  0  0  0
   -8.6420    3.3755    3.5416 N   0  0  0  0  0  0  0  0  0  0  0  0
   -8.5544    4.3000    4.5366 C   0  0  0  0  0  0  0  0  0  0  0  0
   -7.6132    0.3958    2.5834 H   0  0  0  0  0  0  0  0  0  0  0  0
   -8.6465    1.4667    1.7508 H   0  0  0  0  0  0  0  0  0  0  0  0
   -7.6410    4.9930    6.8080 C   0  0  0  0  0  0  0  0  0  0  0  0
   -6.4520    5.6300    6.8680 N   0  0  0  0  0  0  0  0  0  0  0  0
   -6.2260    6.5240    7.8670 N   0  0  0  0  0  0  0  0  0  0  0  0
   -7.1930    6.7500    8.7820 C   0  0  0  0  0  0  0  0  0  0  0  0
   -8.4240    6.1170    8.7580 C   0  0  0  0  0  0  0  0  0  0  0  0
   -9.3950    6.3570    9.7450 N   0  0  0  0  0  0  0  0  0  0  0  0
  -10.5620    5.6840    9.7600 C   0  0  0  0  0  0  0  0  0  0  0  0
  -11.5770    5.6820   10.5960 N   0  0  0  0  0  0  0  0  0  0  0  0
  -12.4690    4.7490   10.1080 N   0  0  0  0  0  0  0  0  0  0  0  0
  -12.0160    4.1880    8.9920 N   0  0  0  0  0  0  0  0  0  0  0  0
  -10.8400    4.7900    8.7610 N   0  0  0  0  0  0  0  0  0  0  0  0
   -9.9950    4.4790    7.6090 C   0  0  0  0  0  0  0  0  0  0  0  0
   -8.6630    5.2070    7.7200 C   0  0  0  0  0  0  0  0  0  0  0  0
   -6.8990    7.6510    9.7710 O   0  0  0  0  0  0  0  0  0  0  0  0
   -9.2187    7.0313   10.4403 H   0  0  0  0  0  0  0  0  0  0  0  0
   -6.0646    8.0772    9.7836 H   0  0  0  0  0  0  0  0  0  0  0  0
  -10.7490    4.8610    6.3730 C   0  0  0  0  0  0  0  0  0  0  0  0
  -11.0350    6.2020    6.1170 C   0  0  0  0  0  0  0  0  0  0  0  0
  -11.7370    6.5580    4.9650 C   0  0  0  0  0  0  0  0  0  0  0  0
  -12.1550    5.5730    4.0710 C   0  0  0  0  0  0  0  0  0  0  0  0
  -11.8700    4.2310    4.3270 C   0  0  0  0  0  0  0  0  0  0  0  0
  -11.1660    3.8760    5.4790 C   0  0  0  0  0  0  0  0  0  0  0  0
  -12.0160    7.8660    4.7150 O   0  0  0  0  0  0  0  0  0  0  0  0
  -11.7352    8.5280    5.3157 H   0  0  0  0  0  0  0  0  0  0  0  0
   -6.2018    2.4028    6.8412 C   0  0  0  0  0  0  0  0  0  0  0  0
   -4.8264    2.2678    6.6008 C   0  0  0  0  0  0  0  0  0  0  0  0
   -3.9520    1.9630    7.6462 C   0  0  0  0  0  0  0  0  0  0  0  0
   -4.4446    1.7868    8.9535 C   0  0  0  0  0  0  0  0  0  0  0  0
   -5.8215    1.8808    9.1832 C   0  0  0  0  0  0  0  0  0  0  0  0
   -6.7040    2.1727    8.1332 C   0  0  0  0  0  0  0  0  0  0  0  0
   -8.0777    2.2159    8.3707 O   0  0  0  0  0  0  0  0  0  0  0  0
   -8.4090    2.0620    9.2335 H   0  0  0  0  0  0  0  0  0  0  0  0
   -3.6061    1.5147   10.0457 O   0  0  0  0  0  0  0  0  0  0  0  0
   -2.1872    1.4061    9.9693 C   0  0  0  0  0  0  0  0  0  0  0  0
   -1.6321    1.2519   11.3545 C   0  0  0  0  0  0  0  0  0  0  0  0
   -1.3373    2.3868   12.1254 C   0  0  0  0  0  0  0  0  0  0  0  0
   -0.8560    2.2468   13.4297 C   0  0  0  0  0  0  0  0  0  0  0  0
   -0.6731    0.9724   13.9765 C   0  0  0  0  0  0  0  0  0  0  0  0
   -0.0598    0.8011   15.6100 Cl  0  0  0  0  0  0  0  0  0  0  0  0
   -0.9735   -0.1637   13.2164 C   0  0  0  0  0  0  0  0  0  0  0  0
   -1.4527   -0.0262   11.9103 C   0  0  0  0  0  0  0  0  0  0  0  0
   -9.2898    5.6074    4.3631 C   0  0  0  0  0  0  0  0  0  0  0  0
   -8.4669    6.6752    4.6737 F   0  0  0  0  0  0  0  0  0  0  0  0
  -10.4045    5.6330    5.1798 F   0  0  0  0  0  0  0  0  0  0  0  0
   -9.7052    5.7515    3.0504 F   0  0  0  0  0  0  0  0  0  0  0  0
 10 11  2  0  0  0
 10 22  1  0  0  0
 10  1  1  0  0  0
 11 12  1  0  0  0
 12 13  2  0  0  0
 13 14  1  0  0  0
 13 23  1  0  0  0
 14 15  1  0  0  0
 14 22  2  0  0  0
 15 16  1  0  0  0
 16 17  2  0  0  0
 16 20  1  0  0  0
 17 18  1  0  0  0
 18 19  2  0  0  0
 19 20  1  0  0  0
 20 21  1  0  0  0
 21 22  1  0  0  0
 21 26  1  0  0  0
 26 27  2  0  0  0
 26 31  1  0  0  0
 27 28  1  0  0  0
 28 29  2  0  0  0
 28 32  1  0  0  0
 29 30  1  0  0  0
 30 31  2  0  0  0
  2 34  1  0  0  0
 34 35  2  0  0  0
 35 36  1  0  0  0
 36 37  2  0  0  0
 37 42  1  0  0  0
 42 43  1  0  0  0
 43 44  1  0  0  0
 44 45  2  0  0  0
 45 46  1  0  0  0
 46 47  2  0  0  0
 47 48  1  0  0  0
 47 49  1  0  0  0
 49 50  2  0  0  0
 37 38  1  0  0  0
 38 39  2  0  0  0
 39 40  1  0  0  0
  2  3  1  0  0  0
  3  4  2  0  0  0
  4  5  1  0  0  0
  4  6  1  0  0  0
  6  7  2  0  0  0
  7 51  1  0  0  0
 51 52  1  0  0  0
 51 53  1  0  0  0
 51 54  1  0  0  0
 39 34  1  0  0  0
 50 44  1  0  0  0
  1  2  2  0  0  0
  1  7  1  0  0  0
 15 24  1  0  0  0
 32 33  1  0  0  0
 23 25  1  0  0  0
 40 41  1  0  0  0
  5  8  1  0  0  0
  5  9  1  0  0  0
M  END
>  <CNNaffinity>
8.77851

>  <CNNscore>
0.860966

>  <minimizedAffinity>
4.00622

>  <minimizedRMSD>
0

>  <molecular weight>
662.881

$$$$



 53 59  0  0  0  0  0  0  0  0999 V2000
   -7.7837    3.9487    5.8152 C   0  0  0  0  0  0  0  0  0  0  0  0
   -6.8344    2.9341    5.6349 C   0  0  0  0  0  0  0  0  0  0  0  0
   -6.8789    2.0494    4.6500 O   0  0  0  0  0  0  0  0  0  0  0  0
   -7.8702    1.9998    3.7681 C   0  0  0  0  0  0  0  0  0  0  0  0
   -7.8108    1.0475    2.7488 C   0  0  0  0  0  0  0  0  0  0  0  0
   -8.8121    0.9656    1.7822 C   0  0  0  0  0  0  0  0  0  0  0  0
   -9.9146    1.8332    1.8695 C   0  0  0  0  0  0  0  0  0  0  0  0
  -10.0204    2.7707    2.9042 C   0  0  0  0  0  0  0  0  0  0  0  0
  -11.2042    3.5126    2.9560 O   0  0  0  0  0  0  0  0  0  0  0  0
   -8.9627    2.9006    3.8506 C   0  0  0  0  0  0  0  0  0  0  0  0
   -8.9030    3.8976    4.8560 C   0  0  0  0  0  0  0  0  0  0  0  0
   -9.7558    4.8233    4.9071 O   0  0  0  0  0  0  0  0  0  0  0  0
  -11.8662    3.3846    2.3053 H   0  0  0  0  0  0  0  0  0  0  0  0
   -7.7794    4.9012    6.9021 C   0  0  0  0  0  0  0  0  0  0  0  0
   -6.5887    5.5158    7.0685 N   0  0  0  0  0  0  0  0  0  0  0  0
   -6.4409    6.4184    8.0743 N   0  0  0  0  0  0  0  0  0  0  0  0
   -7.4861    6.6752    8.8899 C   0  0  0  0  0  0  0  0  0  0  0  0
   -8.7219    6.0658    8.7553 C   0  0  0  0  0  0  0  0  0  0  0  0
   -9.7776    6.3376    9.6419 N   0  0  0  0  0  0  0  0  0  0  0  0
  -10.9543    5.6875    9.5527 C   0  0  0  0  0  0  0  0  0  0  0  0
  -12.0443    5.7162   10.2876 N   0  0  0  0  0  0  0  0  0  0  0  0
  -12.9045    4.7942    9.7270 N   0  0  0  0  0  0  0  0  0  0  0  0
  -12.3586    4.2098    8.6660 N   0  0  0  0  0  0  0  0  0  0  0  0
  -11.1538    4.7859    8.5419 N   0  0  0  0  0  0  0  0  0  0  0  0
  -10.2092    4.4434    7.4797 C   0  0  0  0  0  0  0  0  0  0  0  0
   -8.8792    5.1469    7.7095 C   0  0  0  0  0  0  0  0  0  0  0  0
   -7.2695    7.5833    9.8922 O   0  0  0  0  0  0  0  0  0  0  0  0
   -9.6548    7.0175   10.3433 H   0  0  0  0  0  0  0  0  0  0  0  0
   -6.4316    7.9935    9.9798 H   0  0  0  0  0  0  0  0  0  0  0  0
  -10.8337    4.8235    6.1729 C   0  0  0  0  0  0  0  0  0  0  0  0
  -11.0607    6.1666    5.8729 C   0  0  0  0  0  0  0  0  0  0  0  0
  -11.6420    6.5208    4.6550 C   0  0  0  0  0  0  0  0  0  0  0  0
  -11.9984    5.5320    3.7389 C   0  0  0  0  0  0  0  0  0  0  0  0
  -11.7724    4.1878    4.0388 C   0  0  0  0  0  0  0  0  0  0  0  0
  -11.1891    3.8346    5.2569 C   0  0  0  0  0  0  0  0  0  0  0  0
  -11.8634    7.8309    4.3621 O   0  0  0  0  0  0  0  0  0  0  0  0
  -11.6240    8.4956    4.9776 H   0  0  0  0  0  0  0  0  0  0  0  0
   -8.6658   -0.0034    0.7722 O   0  0  0  0  0  0  0  0  0  0  0  0
   -9.5175   -0.2092   -0.3596 C   0  0  0  0  0  0  0  0  0  0  0  0
  -10.8521   -0.4143    0.0735 O   0  0  0  0  0  0  0  0  0  0  0  0
  -11.6863   -0.7833   -1.0124 C   0  0  0  0  0  0  0  0  0  0  0  0
  -11.7664    0.3693   -2.0459 C   0  0  0  0  0  0  0  0  0  0  0  0
  -12.5971    0.0318   -3.1299 O   0  0  0  0  0  0  0  0  0  0  0  0
  -10.3501    0.7267   -2.5427 C   0  0  0  0  0  0  0  0  0  0  0  0
  -10.3824    1.8430   -3.3976 O   0  0  0  0  0  0  0  0  0  0  0  0
   -9.4104    0.9738   -1.3503 C   0  0  0  0  0  0  0  0  0  0  0  0
   -8.0921    1.0901   -1.8196 O   0  0  0  0  0  0  0  0  0  0  0  0
  -12.2318   -0.7406   -3.5891 H   0  0  0  0  0  0  0  0  0  0  0  0
  -10.7228    2.6114   -2.9132 H   0  0  0  0  0  0  0  0  0  0  0  0
   -7.8381    0.2726   -2.2759 H   0  0  0  0  0  0  0  0  0  0  0  0
  -13.0776   -1.1154   -0.4620 C   0  0  0  0  0  0  0  0  0  0  0  0
  -12.9809   -2.1641    0.4616 O   0  0  0  0  0  0  0  0  0  0  0  0
  -12.6138   -2.9479    0.0236 H   0  0  0  0  0  0  0  0  0  0  0  0
 14 15  2  0  0  0
 14 26  1  0  0  0
 14  1  1  0  0  0
 15 16  1  0  0  0
 16 17  2  0  0  0
 17 18  1  0  0  0
 17 27  1  0  0  0
 18 19  1  0  0  0
 18 26  2  0  0  0
 19 20  1  0  0  0
 20 21  2  0  0  0
 20 24  1  0  0  0
 21 22  1  0  0  0
 22 23  2  0  0  0
 23 24  1  0  0  0
 24 25  1  0  0  0
 25 26  1  0  0  0
 25 30  1  0  0  0
 30 31  2  0  0  0
 30 35  1  0  0  0
 31 32  1  0  0  0
 32 33  2  0  0  0
 32 36  1  0  0  0
 33 34  1  0  0  0
 34 35  2  0  0  0
  2  3  1  0  0  0
  3  4  1  0  0  0
  4  5  2  0  0  0
  5  6  1  0  0  0
  6 38  1  0  0  0
 38 39  1  0  0  0
 39 40  1  0  0  0
 40 41  1  0  0  0
 41 51  1  0  0  0
 51 52  1  0  0  0
 41 42  1  0  0  0
 42 43  1  0  0  0
 42 44  1  0  0  0
 44 45  1  0  0  0
 44 46  1  0  0  0
 46 47  1  0  0  0
  6  7  2  0  0  0
  7  8  1  0  0  0
  8  9  1  0  0  0
  8 10  2  0  0  0
 10 11  1  0  0  0
 11 12  2  0  0  0
 10  4  1  0  0  0
 46 39  1  0  0  0
  1  2  2  0  0  0
  1 11  1  0  0  0
 19 28  1  0  0  0
 36 37  1  0  0  0
 27 29  1  0  0  0
 52 53  1  0  0  0
 43 48  1  0  0  0
 45 49  1  0  0  0
 47 50  1  0  0  0
  9 13  1  0  0  0
M  END
>  <CNNaffinity>
8.76609

>  <CNNscore>
0.969706

>  <minimizedAffinity>
-6.36723

>  <minimizedRMSD>
0.33473

>  <molecular weight>
606.393

$$$$
