


 63 71  0  0  0  0  0  0  0  0999 V2000
   -8.0067    3.8335    5.4492 C   0  0  0  0  0  0  0  0  0  0  0  0
   -7.9342    2.4970    5.6760 N   0  0  0  0  0  0  0  0  0  0  0  0
   -8.2767    1.5242    4.7974 C   0  0  0  0  0  0  0  0  0  0  0  0
   -8.1231    0.1817    5.1648 C   0  0  0  0  0  0  0  0  0  0  0  0
   -8.5167   -0.8355    4.2928 C   0  0  0  0  0  0  0  0  0  0  0  0
   -9.0621   -0.5166    3.0498 C   0  0  0  0  0  0  0  0  0  0  0  0
   -9.2167    0.8204    2.6711 C   0  0  0  0  0  0  0  0  0  0  0  0
   -8.8170    1.8636    3.5375 C   0  0  0  0  0  0  0  0  0  0  0  0
   -8.9563    3.2340    3.2030 C   0  0  0  0  0  0  0  0  0  0  0  0
   -8.5358    4.2274    4.1263 C   0  0  0  0  0  0  0  0  0  0  0  0
   -8.5642    5.6937    3.7465 C   0  0  0  0  0  0  0  0  0  0  0  0
   -7.7388    4.8014    6.4884 C   0  0  0  0  0  0  0  0  0  0  0  0
   -6.5176    5.3685    6.3877 N   0  0  0  0  0  0  0  0  0  0  0  0
   -6.1284    6.2794    7.3189 N   0  0  0  0  0  0  0  0  0  0  0  0
   -6.9688    6.5917    8.3286 C   0  0  0  0  0  0  0  0  0  0  0  0
   -8.2273    6.0322    8.4697 C   0  0  0  0  0  0  0  0  0  0  0  0
   -9.0626    6.3611    9.5508 N   0  0  0  0  0  0  0  0  0  0  0  0
  -10.2552    5.7592    9.7248 C   0  0  0  0  0  0  0  0  0  0  0  0
  -11.1650    5.8443   10.6704 N   0  0  0  0  0  0  0  0  0  0  0  0
  -12.1576    4.9504   10.3239 N   0  0  0  0  0  0  0  0  0  0  0  0
  -11.8686    4.3278    9.1863 N   0  0  0  0  0  0  0  0  0  0  0  0
  -10.6960    4.8513    8.7996 N   0  0  0  0  0  0  0  0  0  0  0  0
  -10.0087    4.4538    7.5718 C   0  0  0  0  0  0  0  0  0  0  0  0
   -8.6348    5.1049    7.5019 C   0  0  0  0  0  0  0  0  0  0  0  0
   -6.5129    7.5052    9.2419 O   0  0  0  0  0  0  0  0  0  0  0  0
   -8.7700    7.0459   10.1947 H   0  0  0  0  0  0  0  0  0  0  0  0
   -5.6606    7.8815    9.1427 H   0  0  0  0  0  0  0  0  0  0  0  0
  -10.8788    4.8396    6.4158 C   0  0  0  0  0  0  0  0  0  0  0  0
  -11.0407    6.1845    6.0831 C   0  0  0  0  0  0  0  0  0  0  0  0
  -11.8509    6.5439    5.0056 C   0  0  0  0  0  0  0  0  0  0  0  0
  -12.5008    5.5589    4.2630 C   0  0  0  0  0  0  0  0  0  0  0  0
  -12.3400    4.2131    4.5959 C   0  0  0  0  0  0  0  0  0  0  0  0
  -11.5278    3.8544    5.6731 C   0  0  0  0  0  0  0  0  0  0  0  0
  -12.0089    7.8557    4.6807 O   0  0  0  0  0  0  0  0  0  0  0  0
  -11.5722    8.5177    5.1797 H   0  0  0  0  0  0  0  0  0  0  0  0
   -9.5733    3.6232    1.9148 C   0  0  0  0  0  0  0  0  0  0  0  0
   -8.8403    3.9889    0.9542 O   0  0  0  0  0  0  0  0  0  0  0  0
  -10.9959    3.5659    1.7555 N   0  0  0  0  0  0  0  0  0  0  0  0
  -11.5717    3.7610    2.5299 H   0  0  0  0  0  0  0  0  0  0  0  0
  -11.6170    3.2263    0.4779 C   0  0  0  0  0  0  0  0  0  0  0  0
  -12.2354    1.8314    0.5747 C   0  0  0  0  0  0  0  0  0  0  0  0
  -13.6472    1.9054    0.9442 N   0  0  0  0  0  0  0  0  0  0  0  0
  -14.0909    1.8590    2.3064 C   0  0  0  0  0  0  0  0  0  0  0  0
  -13.2605    1.9396    3.2511 O   0  0  0  0  0  0  0  0  0  0  0  0
  -14.3195    1.9905    0.2301 H   0  0  0  0  0  0  0  0  0  0  0  0
  -15.5296    1.6772    2.6045 C   0  0  0  0  0  0  0  0  0  0  0  0
  -16.5041    2.3949    1.8624 C   0  0  0  0  0  0  0  0  0  0  0  0
  -16.0808    3.4826    0.8957 C   0  0  0  0  0  0  0  0  0  0  0  0
  -17.8754    2.0897    2.0611 C   0  0  0  0  0  0  0  0  0  0  0  0
  -18.2331    1.2063    3.0290 N   0  0  0  0  0  0  0  0  0  0  0  0
  -17.3307    0.5528    3.7990 C   0  0  0  0  0  0  0  0  0  0  0  0
  -17.7830   -0.3483    4.7711 C   0  0  0  0  0  0  0  0  0  0  0  0
  -16.8685   -1.0703    5.5386 C   0  0  0  0  0  0  0  0  0  0  0  0
  -15.4983   -0.9036    5.3323 C   0  0  0  0  0  0  0  0  0  0  0  0
  -15.0355   -0.0058    4.3647 C   0  0  0  0  0  0  0  0  0  0  0  0
  -15.9467    0.7498    3.5928 C   0  0  0  0  0  0  0  0  0  0  0  0
  -18.9605    2.6697    1.2358 C   0  0  0  0  0  0  0  0  0  0  0  0
  -19.1985    2.2060   -0.0696 C   0  0  0  0  0  0  0  0  0  0  0  0
  -20.2710    2.7066   -0.8138 C   0  0  0  0  0  0  0  0  0  0  0  0
  -21.1251    3.6726   -0.2617 C   0  0  0  0  0  0  0  0  0  0  0  0
  -22.3115    4.1519   -1.0471 C   0  0  0  0  0  0  0  0  0  0  0  0
  -20.9161    4.1068    1.0545 C   0  0  0  0  0  0  0  0  0  0  0  0
  -19.8381    3.6115    1.7968 C   0  0  0  0  0  0  0  0  0  0  0  0
 12 13  2  0  0  0
 12 24  1  0  0  0
 12  1  1  0  0  0
 13 14  1  0  0  0
 14 15  2  0  0  0
 15 16  1  0  0  0
 15 25  1  0  0  0
 16 17  1  0  0  0
 16 24  2  0  0  0
 17 18  1  0  0  0
 18 19  2  0  0  0
 18 22  1  0  0  0
 19 20  1  0  0  0
 20 21  2  0  0  0
 21 22  1  0  0  0
 22 23  1  0  0  0
 23 24  1  0  0  0
 23 28  1  0  0  0
 28 29  2  0  0  0
 28 33  1  0  0  0
 29 30  1  0  0  0
 30 31  2  0  0  0
 30 34  1  0  0  0
 31 32  1  0  0  0
 32 33  2  0  0  0
  2  3  1  0  0  0
  3  4  2  0  0  0
  4  5  1  0  0  0
  5  6  2  0  0  0
  6  7  1  0  0  0
  7  8  2  0  0  0
  8  9  1  0  0  0
  9 36  1  0  0  0
 36 37  2  0  0  0
 36 38  1  0  0  0
 38 40  1  0  0  0
 40 41  1  0  0  0
 41 42  1  0  0  0
 42 43  1  0  0  0
 43 44  2  0  0  0
 43 46  1  0  0  0
 46 47  2  0  0  0
 47 48  1  0  0  0
 47 49  1  0  0  0
 49 57  1  0  0  0
 57 58  2  0  0  0
 58 59  1  0  0  0
 59 60  2  0  0  0
 60 61  1  0  0  0
 60 62  1  0  0  0
 62 63  2  0  0  0
 49 50  2  0  0  0
 50 51  1  0  0  0
 51 52  2  0  0  0
 52 53  1  0  0  0
 53 54  2  0  0  0
 54 55  1  0  0  0
 55 56  2  0  0  0
  9 10  2  0  0  0
 10 11  1  0  0  0
  8  3  1  0  0  0
 56 46  1  0  0  0
 63 57  1  0  0  0
 56 51  1  0  0  0
  1  2  2  0  0  0
  1 10  1  0  0  0
 17 26  1  0  0  0
 34 35  1  0  0  0
 25 27  1  0  0  0
 38 39  1  0  0  0
 42 45  1  0  0  0
M  END
>  <minimizedAffinity>
-9.0815

>  <minimizedRMSD>
3.61617

>  <molecular weight>
739.571

$$$$



 54 62  0  0  0  0  0  0  0  0999 V2000
   -7.6709    4.0627    5.7103 C   0  0  0  0  0  0  0  0  0  0  0  0
   -7.5783    2.6609    5.8546 C   0  0  0  0  0  0  0  0  0  0  0  0
   -7.8351    1.7542    4.8149 C   0  0  0  0  0  0  0  0  0  0  0  0
   -8.2309    2.2374    3.5590 C   0  0  0  0  0  0  0  0  0  0  0  0
   -8.3398    3.6106    3.3345 C   0  0  0  0  0  0  0  0  0  0  0  0
   -8.0791    4.5212    4.3644 C   0  0  0  0  0  0  0  0  0  0  0  0
   -8.1467    5.8861    4.0711 O   0  0  0  0  0  0  0  0  0  0  0  0
   -8.4061    6.1693    3.2165 H   0  0  0  0  0  0  0  0  0  0  0  0
   -7.6110    4.9856    6.8208 C   0  0  0  0  0  0  0  0  0  0  0  0
   -6.4290    5.6315    6.9150 N   0  0  0  0  0  0  0  0  0  0  0  0
   -6.2309    6.5110    7.9326 N   0  0  0  0  0  0  0  0  0  0  0  0
   -7.2180    6.7141    8.8313 C   0  0  0  0  0  0  0  0  0  0  0  0
   -8.4427    6.0713    8.7723 C   0  0  0  0  0  0  0  0  0  0  0  0
   -9.4354    6.2872    9.7432 N   0  0  0  0  0  0  0  0  0  0  0  0
  -10.5966    5.6044    9.7238 C   0  0  0  0  0  0  0  0  0  0  0  0
  -11.6281    5.5804   10.5390 N   0  0  0  0  0  0  0  0  0  0  0  0
  -12.5020    4.6480   10.0182 N   0  0  0  0  0  0  0  0  0  0  0  0
  -12.0218    4.1089    8.9028 N   0  0  0  0  0  0  0  0  0  0  0  0
  -10.8467    4.7244    8.7052 N   0  0  0  0  0  0  0  0  0  0  0  0
   -9.9761    4.4391    7.5657 C   0  0  0  0  0  0  0  0  0  0  0  0
   -8.6529    5.1763    7.7153 C   0  0  0  0  0  0  0  0  0  0  0  0
   -6.9517    7.6014    9.8404 O   0  0  0  0  0  0  0  0  0  0  0  0
   -9.2790    6.9516   10.4527 H   0  0  0  0  0  0  0  0  0  0  0  0
   -6.1215    8.0343    9.8766 H   0  0  0  0  0  0  0  0  0  0  0  0
  -10.7084    4.8347    6.3210 C   0  0  0  0  0  0  0  0  0  0  0  0
  -10.8969    6.1840    6.0218 C   0  0  0  0  0  0  0  0  0  0  0  0
  -11.5787    6.5527    4.8617 C   0  0  0  0  0  0  0  0  0  0  0  0
  -12.0740    5.5723    4.0028 C   0  0  0  0  0  0  0  0  0  0  0  0
  -11.8865    4.2221    4.3020 C   0  0  0  0  0  0  0  0  0  0  0  0
  -11.2026    3.8543    5.4621 C   0  0  0  0  0  0  0  0  0  0  0  0
  -11.7627    7.8688    4.5696 O   0  0  0  0  0  0  0  0  0  0  0  0
  -11.4299    8.5277    5.1467 H   0  0  0  0  0  0  0  0  0  0  0  0
   -7.7076    0.3009    5.0427 C   0  0  0  0  0  0  0  0  0  0  0  0
   -8.7674   -0.5608    4.7230 C   0  0  0  0  0  0  0  0  0  0  0  0
   -8.6464   -1.9370    4.9361 C   0  0  0  0  0  0  0  0  0  0  0  0
   -7.4510   -2.4768    5.4398 C   0  0  0  0  0  0  0  0  0  0  0  0
   -6.3857   -1.6152    5.7470 C   0  0  0  0  0  0  0  0  0  0  0  0
   -6.5188   -0.2343    5.5630 C   0  0  0  0  0  0  0  0  0  0  0  0
   -7.3291   -3.9380    5.6590 C   0  0  0  0  0  0  0  0  0  0  0  0
   -7.6042   -4.5685    6.8863 C   0  0  0  0  0  0  0  0  0  0  0  0
   -7.3694   -6.2376    6.7093 S   0  0  0  0  0  0  0  0  0  0  0  0
   -6.9547   -6.1758    5.0890 C   0  0  0  0  0  0  0  0  0  0  0  0
   -6.6114   -7.2369    4.2551 C   0  0  0  0  0  0  0  0  0  0  0  0
   -6.2464   -6.9511    2.9332 C   0  0  0  0  0  0  0  0  0  0  0  0
   -6.2307   -5.6217    2.4725 C   0  0  0  0  0  0  0  0  0  0  0  0
   -6.5852   -4.5668    3.3312 C   0  0  0  0  0  0  0  0  0  0  0  0
   -6.9629   -4.8592    4.6517 C   0  0  0  0  0  0  0  0  0  0  0  0
   -7.9422   -3.8755    8.1826 C   0  0  0  0  0  0  0  0  0  0  0  0
   -7.2711   -4.5153    9.3707 C   0  0  0  0  0  0  0  0  0  0  0  0
   -7.6725   -5.7869    9.8151 C   0  0  0  0  0  0  0  0  0  0  0  0
   -7.0592   -6.3683   10.9289 C   0  0  0  0  0  0  0  0  0  0  0  0
   -6.0229   -5.6995   11.5901 C   0  0  0  0  0  0  0  0  0  0  0  0
   -5.6014   -4.4461   11.1384 C   0  0  0  0  0  0  0  0  0  0  0  0
   -6.2256   -3.8522   10.0357 C   0  0  0  0  0  0  0  0  0  0  0  0
  9 10  2  0  0  0
  9 21  1  0  0  0
  9  1  1  0  0  0
 10 11  1  0  0  0
 11 12  2  0  0  0
 12 13  1  0  0  0
 12 22  1  0  0  0
 13 14  1  0  0  0
 13 21  2  0  0  0
 14 15  1  0  0  0
 15 16  2  0  0  0
 15 19  1  0  0  0
 16 17  1  0  0  0
 17 18  2  0  0  0
 18 19  1  0  0  0
 19 20  1  0  0  0
 20 21  1  0  0  0
 20 25  1  0  0  0
 25 26  2  0  0  0
 25 30  1  0  0  0
 26 27  1  0  0  0
 27 28  2  0  0  0
 27 31  1  0  0  0
 28 29  1  0  0  0
 29 30  2  0  0  0
  2  3  1  0  0  0
  3 33  1  0  0  0
 33 34  2  0  0  0
 34 35  1  0  0  0
 35 36  2  0  0  0
 36 39  1  0  0  0
 39 40  2  0  0  0
 40 48  1  0  0  0
 48 49  1  0  0  0
 49 50  2  0  0  0
 50 51  1  0  0  0
 51 52  2  0  0  0
 52 53  1  0  0  0
 53 54  2  0  0  0
 40 41  1  0  0  0
 41 42  1  0  0  0
 42 43  2  0  0  0
 43 44  1  0  0  0
 44 45  2  0  0  0
 45 46  1  0  0  0
 46 47  2  0  0  0
 36 37  1  0  0  0
 37 38  2  0  0  0
  3  4  2  0  0  0
  4  5  1  0  0  0
  5  6  2  0  0  0
  6  7  1  0  0  0
 38 33  1  0  0  0
 47 39  1  0  0  0
 54 49  1  0  0  0
 47 42  1  0  0  0
  1  2  2  0  0  0
  1  6  1  0  0  0
 14 23  1  0  0  0
 31 32  1  0  0  0
 22 24  1  0  0  0
  7  8  1  0  0  0
M  END
>  <minimizedAffinity>
-8.72783

>  <minimizedRMSD>
3.56864

>  <molecular weight>
650.559

$$$$



 50 56  0  0  0  0  0  0  0  0999 V2000
   -7.6327    4.0449    5.7824 C   0  0  0  0  0  0  0  0  0  0  0  0
   -7.3977    2.6643    5.9310 C   0  0  0  0  0  0  0  0  0  0  0  0
   -7.5308    1.7325    4.8938 C   0  0  0  0  0  0  0  0  0  0  0  0
   -7.9234    2.1762    3.6217 C   0  0  0  0  0  0  0  0  0  0  0  0
   -8.2135    3.5236    3.4009 C   0  0  0  0  0  0  0  0  0  0  0  0
   -8.0940    4.4626    4.4432 C   0  0  0  0  0  0  0  0  0  0  0  0
   -7.5709    5.0017    6.8637 C   0  0  0  0  0  0  0  0  0  0  0  0
   -6.3996    5.6712    6.9178 N   0  0  0  0  0  0  0  0  0  0  0  0
   -6.2003    6.5843    7.9051 N   0  0  0  0  0  0  0  0  0  0  0  0
   -7.1754    6.7966    8.8147 C   0  0  0  0  0  0  0  0  0  0  0  0
   -8.3889    6.1305    8.7965 C   0  0  0  0  0  0  0  0  0  0  0  0
   -9.3687    6.3576    9.7779 N   0  0  0  0  0  0  0  0  0  0  0  0
  -10.5172    5.6537    9.7994 C   0  0  0  0  0  0  0  0  0  0  0  0
  -11.5340    5.6358   10.6330 N   0  0  0  0  0  0  0  0  0  0  0  0
  -12.3993    4.6726   10.1557 N   0  0  0  0  0  0  0  0  0  0  0  0
  -11.9285    4.1089    9.0484 N   0  0  0  0  0  0  0  0  0  0  0  0
  -10.7684    4.7392    8.8120 N   0  0  0  0  0  0  0  0  0  0  0  0
   -9.9123    4.4355    7.6663 C   0  0  0  0  0  0  0  0  0  0  0  0
   -8.6007    5.2004    7.7704 C   0  0  0  0  0  0  0  0  0  0  0  0
   -6.9084    7.7185    9.7921 O   0  0  0  0  0  0  0  0  0  0  0  0
   -9.2124    7.0457   10.4644 H   0  0  0  0  0  0  0  0  0  0  0  0
   -6.0858    8.1671    9.8007 H   0  0  0  0  0  0  0  0  0  0  0  0
  -10.6730    4.7803    6.4235 C   0  0  0  0  0  0  0  0  0  0  0  0
  -10.9991    6.1089    6.1514 C   0  0  0  0  0  0  0  0  0  0  0  0
  -11.7074    6.4303    4.9931 C   0  0  0  0  0  0  0  0  0  0  0  0
  -12.0915    5.4231    4.1088 C   0  0  0  0  0  0  0  0  0  0  0  0
  -11.7664    4.0934    4.3808 C   0  0  0  0  0  0  0  0  0  0  0  0
  -11.0562    3.7731    5.5392 C   0  0  0  0  0  0  0  0  0  0  0  0
  -12.0254    7.7263    4.7274 O   0  0  0  0  0  0  0  0  0  0  0  0
  -11.7674    8.4033    5.3216 H   0  0  0  0  0  0  0  0  0  0  0  0
   -7.1919    0.3551    5.1345 N   0  0  0  0  0  0  0  0  0  0  0  0
   -8.0168   -0.7624    4.7735 C   0  0  0  0  0  0  0  0  0  0  0  0
   -7.4655   -1.8515    4.4589 O   0  0  0  0  0  0  0  0  0  0  0  0
   -6.3336    0.1658    5.5781 H   0  0  0  0  0  0  0  0  0  0  0  0
   -9.5220   -0.6720    4.7966 C   0  0  0  0  0  0  0  0  0  0  0  0
  -10.1732   -1.8881    5.4670 C   0  0  0  0  0  0  0  0  0  0  0  0
   -9.4319   -2.3245    6.7388 C   0  0  0  0  0  0  0  0  0  0  0  0
  -10.0715   -3.5533    7.3247 C   0  0  0  0  0  0  0  0  0  0  0  0
   -9.2967   -4.4556    7.9842 N   0  0  0  0  0  0  0  0  0  0  0  0
   -9.8245   -5.5912    8.5054 C   0  0  0  0  0  0  0  0  0  0  0  0
   -8.9960   -6.5116    9.1634 C   0  0  0  0  0  0  0  0  0  0  0  0
   -9.5360   -7.6931    9.6833 C   0  0  0  0  0  0  0  0  0  0  0  0
  -10.9049   -7.9554    9.5579 C   0  0  0  0  0  0  0  0  0  0  0  0
  -11.7418   -7.0365    8.9114 C   0  0  0  0  0  0  0  0  0  0  0  0
  -11.2051   -5.8500    8.3749 C   0  0  0  0  0  0  0  0  0  0  0  0
  -11.9921   -4.9005    7.7023 C   0  0  0  0  0  0  0  0  0  0  0  0
  -13.2340   -5.0771    7.5646 O   0  0  0  0  0  0  0  0  0  0  0  0
  -11.4117   -3.7766    7.1944 N   0  0  0  0  0  0  0  0  0  0  0  0
   -8.3436    5.8293    4.2322 O   0  0  0  0  0  0  0  0  0  0  0  0
   -8.6139    6.4150    2.9641 C   0  0  0  0  0  0  0  0  0  0  0  0
  7  8  2  0  0  0
  7 19  1  0  0  0
  7  1  1  0  0  0
  8  9  1  0  0  0
  9 10  2  0  0  0
 10 11  1  0  0  0
 10 20  1  0  0  0
 11 12  1  0  0  0
 11 19  2  0  0  0
 12 13  1  0  0  0
 13 14  2  0  0  0
 13 17  1  0  0  0
 14 15  1  0  0  0
 15 16  2  0  0  0
 16 17  1  0  0  0
 17 18  1  0  0  0
 18 19  1  0  0  0
 18 23  1  0  0  0
 23 24  2  0  0  0
 23 28  1  0  0  0
 24 25  1  0  0  0
 25 26  2  0  0  0
 25 29  1  0  0  0
 26 27  1  0  0  0
 27 28  2  0  0  0
  2  3  1  0  0  0
  3 31  1  0  0  0
 31 32  1  0  0  0
 32 33  2  0  0  0
 32 35  1  0  0  0
 35 36  1  0  0  0
 36 37  1  0  0  0
 37 38  1  0  0  0
 38 39  1  0  0  0
 39 40  2  0  0  0
 40 41  1  0  0  0
 41 42  1  0  0  0
 42 43  2  0  0  0
 43 44  1  0  0  0
 44 45  2  0  0  0
 45 46  1  0  0  0
 46 47  2  0  0  0
 46 48  1  0  0  0
  3  4  2  0  0  0
  4  5  1  0  0  0
  5  6  2  0  0  0
  6 49  1  0  0  0
 49 50  1  0  0  0
 48 38  2  0  0  0
 45 40  1  0  0  0
  1  2  2  0  0  0
  1  6  1  0  0  0
 12 21  1  0  0  0
 29 30  1  0  0  0
 20 22  1  0  0  0
 31 34  1  0  0  0
M  END
>  <minimizedAffinity>
-8.5523

>  <minimizedRMSD>
3.07605

>  <molecular weight>
596.427

$$$$



 63 71  0  0  0  0  0  0  0  0999 V2000
  -10.7459    4.1320    5.0382 C   0  0  0  0  0  0  0  0  0  0  0  0
  -10.6431    2.8095    4.7459 N   0  0  0  0  0  0  0  0  0  0  0  0
  -10.7872    2.2585    3.5170 C   0  0  0  0  0  0  0  0  0  0  0  0
  -10.6248    0.8762    3.3602 C   0  0  0  0  0  0  0  0  0  0  0  0
  -10.7940    0.2880    2.1065 C   0  0  0  0  0  0  0  0  0  0  0  0
  -11.1288    1.0758    1.0041 C   0  0  0  0  0  0  0  0  0  0  0  0
  -11.2933    2.4567    1.1487 C   0  0  0  0  0  0  0  0  0  0  0  0
  -11.1167    3.0709    2.4094 C   0  0  0  0  0  0  0  0  0  0  0  0
  -11.2705    4.4646    2.6086 C   0  0  0  0  0  0  0  0  0  0  0  0
  -11.0810    5.0144    3.9037 C   0  0  0  0  0  0  0  0  0  0  0  0
  -11.1685    6.5105    4.1248 C   0  0  0  0  0  0  0  0  0  0  0  0
  -10.6555    4.6192    6.3957 C   0  0  0  0  0  0  0  0  0  0  0  0
  -11.7885    4.4332    7.1063 N   0  0  0  0  0  0  0  0  0  0  0  0
  -11.8464    4.8699    8.3924 N   0  0  0  0  0  0  0  0  0  0  0  0
  -10.7719    5.4870    8.9291 C   0  0  0  0  0  0  0  0  0  0  0  0
   -9.5930    5.6995    8.2350 C   0  0  0  0  0  0  0  0  0  0  0  0
   -8.5057    6.3718    8.8185 N   0  0  0  0  0  0  0  0  0  0  0  0
   -7.3885    6.6421    8.1158 C   0  0  0  0  0  0  0  0  0  0  0  0
   -6.2894    7.3008    8.4112 N   0  0  0  0  0  0  0  0  0  0  0  0
   -5.5168    7.2824    7.2679 N   0  0  0  0  0  0  0  0  0  0  0  0
   -6.1246    6.6236    6.2871 N   0  0  0  0  0  0  0  0  0  0  0  0
   -7.2791    6.2020    6.8239 N   0  0  0  0  0  0  0  0  0  0  0  0
   -8.2641    5.4138    6.0848 C   0  0  0  0  0  0  0  0  0  0  0  0
   -9.5276    5.2361    6.9146 C   0  0  0  0  0  0  0  0  0  0  0  0
  -10.8979    5.9160   10.2239 O   0  0  0  0  0  0  0  0  0  0  0  0
   -8.5615    6.6512    9.7609 H   0  0  0  0  0  0  0  0  0  0  0  0
  -11.6975    5.7702   10.6900 H   0  0  0  0  0  0  0  0  0  0  0  0
   -7.6291    4.1048    5.7308 C   0  0  0  0  0  0  0  0  0  0  0  0
   -7.3268    3.8133    4.4007 C   0  0  0  0  0  0  0  0  0  0  0  0
   -6.7345    2.5938    4.0710 C   0  0  0  0  0  0  0  0  0  0  0  0
   -6.4472    1.6654    5.0708 C   0  0  0  0  0  0  0  0  0  0  0  0
   -6.7502    1.9560    6.4018 C   0  0  0  0  0  0  0  0  0  0  0  0
   -7.3412    3.1772    6.7309 C   0  0  0  0  0  0  0  0  0  0  0  0
   -6.4395    2.3093    2.7736 O   0  0  0  0  0  0  0  0  0  0  0  0
   -6.6326    2.9330    2.1016 H   0  0  0  0  0  0  0  0  0  0  0  0
  -11.6126    5.3440    1.4698 C   0  0  0  0  0  0  0  0  0  0  0  0
  -10.6893    5.8777    0.7968 O   0  0  0  0  0  0  0  0  0  0  0  0
  -12.9888    5.5622    1.1235 N   0  0  0  0  0  0  0  0  0  0  0  0
  -13.6803    5.0254    1.5739 H   0  0  0  0  0  0  0  0  0  0  0  0
  -13.4041    6.5493    0.1291 C   0  0  0  0  0  0  0  0  0  0  0  0
  -13.9151    7.8137    0.8229 C   0  0  0  0  0  0  0  0  0  0  0  0
  -15.3639    7.7608    1.0106 N   0  0  0  0  0  0  0  0  0  0  0  0
  -16.1535    8.9568    1.0177 C   0  0  0  0  0  0  0  0  0  0  0  0
  -15.6274   10.0695    0.7395 O   0  0  0  0  0  0  0  0  0  0  0  0
  -15.8046    6.8892    1.1341 H   0  0  0  0  0  0  0  0  0  0  0  0
  -17.5871    8.8972    1.3783 C   0  0  0  0  0  0  0  0  0  0  0  0
  -18.5749    8.8386    0.3611 C   0  0  0  0  0  0  0  0  0  0  0  0
  -18.1762    8.9529   -1.0959 C   0  0  0  0  0  0  0  0  0  0  0  0
  -19.9356    8.7029    0.7375 C   0  0  0  0  0  0  0  0  0  0  0  0
  -20.2719    8.7150    2.0534 N   0  0  0  0  0  0  0  0  0  0  0  0
  -19.3570    8.8163    3.0473 C   0  0  0  0  0  0  0  0  0  0  0  0
  -19.7867    8.8208    4.3807 C   0  0  0  0  0  0  0  0  0  0  0  0
  -18.8570    8.9032    5.4168 C   0  0  0  0  0  0  0  0  0  0  0  0
  -17.4932    8.9684    5.1279 C   0  0  0  0  0  0  0  0  0  0  0  0
  -17.0528    8.9636    3.8016 C   0  0  0  0  0  0  0  0  0  0  0  0
  -17.9815    8.8977    2.7388 C   0  0  0  0  0  0  0  0  0  0  0  0
  -21.0333    8.5561   -0.2442 C   0  0  0  0  0  0  0  0  0  0  0  0
  -21.3486    7.3029   -0.7959 C   0  0  0  0  0  0  0  0  0  0  0  0
  -22.4114    7.1734   -1.6960 C   0  0  0  0  0  0  0  0  0  0  0  0
  -23.1776    8.2934   -2.0524 C   0  0  0  0  0  0  0  0  0  0  0  0
  -24.3404    8.1466   -2.9887 C   0  0  0  0  0  0  0  0  0  0  0  0
  -22.8927    9.5360   -1.4675 C   0  0  0  0  0  0  0  0  0  0  0  0
  -21.8272    9.6667   -0.5719 C   0  0  0  0  0  0  0  0  0  0  0  0
 12 13  2  0  0  0
 12 24  1  0  0  0
 12  1  1  0  0  0
 13 14  1  0  0  0
 14 15  2  0  0  0
 15 16  1  0  0  0
 15 25  1  0  0  0
 16 17  1  0  0  0
 16 24  2  0  0  0
 17 18  1  0  0  0
 18 19  2  0  0  0
 18 22  1  0  0  0
 19 20  1  0  0  0
 20 21  2  0  0  0
 21 22  1  0  0  0
 22 23  1  0  0  0
 23 24  1  0  0  0
 23 28  1  0  0  0
 28 29  2  0  0  0
 28 33  1  0  0  0
 29 30  1  0  0  0
 30 31  2  0  0  0
 30 34  1  0  0  0
 31 32  1  0  0  0
 32 33  2  0  0  0
  2  3  1  0  0  0
  3  4  2  0  0  0
  4  5  1  0  0  0
  5  6  2  0  0  0
  6  7  1  0  0  0
  7  8  2  0  0  0
  8  9  1  0  0  0
  9 36  1  0  0  0
 36 37  2  0  0  0
 36 38  1  0  0  0
 38 40  1  0  0  0
 40 41  1  0  0  0
 41 42  1  0  0  0
 42 43  1  0  0  0
 43 44  2  0  0  0
 43 46  1  0  0  0
 46 47  2  0  0  0
 47 48  1  0  0  0
 47 49  1  0  0  0
 49 57  1  0  0  0
 57 58  2  0  0  0
 58 59  1  0  0  0
 59 60  2  0  0  0
 60 61  1  0  0  0
 60 62  1  0  0  0
 62 63  2  0  0  0
 49 50  2  0  0  0
 50 51  1  0  0  0
 51 52  2  0  0  0
 52 53  1  0  0  0
 53 54  2  0  0  0
 54 55  1  0  0  0
 55 56  2  0  0  0
  9 10  2  0  0  0
 10 11  1  0  0  0
  8  3  1  0  0  0
 56 46  1  0  0  0
 63 57  1  0  0  0
 56 51  1  0  0  0
  1  2  2  0  0  0
  1 10  1  0  0  0
 17 26  1  0  0  0
 34 35  1  0  0  0
 25 27  1  0  0  0
 38 39  1  0  0  0
 42 45  1  0  0  0
M  END
>  <minimizedAffinity>
-8.53162

>  <minimizedRMSD>
7.86337

>  <molecular weight>
739.571

$$$$



 52 59  0  0  0  0  0  0  0  0999 V2000
   -7.5901    3.9679    5.9897 C   0  0  0  0  0  0  0  0  0  0  0  0
   -7.6234    2.6213    6.1912 N   0  0  0  0  0  0  0  0  0  0  0  0
   -7.7400    1.8824    5.0663 C   0  0  0  0  0  0  0  0  0  0  0  0
   -7.8517    2.8440    3.6932 S   0  0  0  0  0  0  0  0  0  0  0  0
   -7.7391    4.2781    4.5671 C   0  0  0  0  0  0  0  0  0  0  0  0
   -7.7321    5.6400    3.9454 C   0  0  0  0  0  0  0  0  0  0  0  0
   -7.5158    4.9727    7.0257 C   0  0  0  0  0  0  0  0  0  0  0  0
   -6.3297    5.6170    7.0604 N   0  0  0  0  0  0  0  0  0  0  0  0
   -6.1182    6.5708    8.0059 N   0  0  0  0  0  0  0  0  0  0  0  0
   -7.0964    6.8478    8.8946 C   0  0  0  0  0  0  0  0  0  0  0  0
   -8.3249    6.2095    8.8952 C   0  0  0  0  0  0  0  0  0  0  0  0
   -9.3080    6.5048    9.8548 N   0  0  0  0  0  0  0  0  0  0  0  0
  -10.4728    5.8292    9.8974 C   0  0  0  0  0  0  0  0  0  0  0  0
  -11.4973    5.8737   10.7206 N   0  0  0  0  0  0  0  0  0  0  0  0
  -12.3805    4.9092   10.2799 N   0  0  0  0  0  0  0  0  0  0  0  0
  -11.9128    4.2836    9.2051 N   0  0  0  0  0  0  0  0  0  0  0  0
  -10.7363    4.8753    8.9513 N   0  0  0  0  0  0  0  0  0  0  0  0
   -9.8771    4.4986    7.8299 C   0  0  0  0  0  0  0  0  0  0  0  0
   -8.5489    5.2374    7.9115 C   0  0  0  0  0  0  0  0  0  0  0  0
   -6.8168    7.8082    9.8305 O   0  0  0  0  0  0  0  0  0  0  0  0
   -9.1420    7.2207   10.5100 H   0  0  0  0  0  0  0  0  0  0  0  0
   -5.9841    8.2377    9.8266 H   0  0  0  0  0  0  0  0  0  0  0  0
  -10.6182    4.8020    6.5646 C   0  0  0  0  0  0  0  0  0  0  0  0
  -10.9418    6.1206    6.2450 C   0  0  0  0  0  0  0  0  0  0  0  0
  -11.6318    6.4034    5.0658 C   0  0  0  0  0  0  0  0  0  0  0  0
  -12.0001    5.3676    4.2080 C   0  0  0  0  0  0  0  0  0  0  0  0
  -11.6774    4.0480    4.5276 C   0  0  0  0  0  0  0  0  0  0  0  0
  -10.9855    3.7663    5.7069 C   0  0  0  0  0  0  0  0  0  0  0  0
  -11.9475    7.6896    4.7538 O   0  0  0  0  0  0  0  0  0  0  0  0
  -11.7001    8.3857    5.3300 H   0  0  0  0  0  0  0  0  0  0  0  0
   -7.7682    0.4494    5.0430 N   0  0  0  0  0  0  0  0  0  0  0  0
   -7.2756   -0.3767    6.1107 C   0  0  0  0  0  0  0  0  0  0  0  0
   -6.5886    0.1247    7.0420 O   0  0  0  0  0  0  0  0  0  0  0  0
   -8.1469    0.0056    4.2500 H   0  0  0  0  0  0  0  0  0  0  0  0
   -7.4864   -1.8376    6.0883 C   0  0  0  0  0  0  0  0  0  0  0  0
   -6.5060   -2.6216    6.6065 N   0  0  0  0  0  0  0  0  0  0  0  0
   -6.5628   -3.9551    6.6060 N   0  0  0  0  0  0  0  0  0  0  0  0
   -7.6483   -4.6064    6.0854 C   0  0  0  0  0  0  0  0  0  0  0  0
   -7.7009   -5.8691    6.1036 O   0  0  0  0  0  0  0  0  0  0  0  0
   -8.7112   -3.8628    5.5411 C   0  0  0  0  0  0  0  0  0  0  0  0
   -9.8485   -4.5004    5.0054 C   0  0  0  0  0  0  0  0  0  0  0  0
  -10.9146   -3.7476    4.5129 C   0  0  0  0  0  0  0  0  0  0  0  0
  -10.8691   -2.3546    4.5604 C   0  0  0  0  0  0  0  0  0  0  0  0
   -9.7520   -1.7059    5.0919 C   0  0  0  0  0  0  0  0  0  0  0  0
   -8.6442   -2.4483    5.5563 C   0  0  0  0  0  0  0  0  0  0  0  0
   -5.4538   -4.6904    7.2225 C   0  0  0  0  0  0  0  0  0  0  0  0
   -5.5813   -4.6547    8.7212 C   0  0  0  0  0  0  0  0  0  0  0  0
   -6.4313   -5.5555    9.3892 C   0  0  0  0  0  0  0  0  0  0  0  0
   -6.5511   -5.5088   10.7808 C   0  0  0  0  0  0  0  0  0  0  0  0
   -5.8240   -4.5664   11.5146 C   0  0  0  0  0  0  0  0  0  0  0  0
   -4.9755   -3.6699   10.8591 C   0  0  0  0  0  0  0  0  0  0  0  0
   -4.8575   -3.7077    9.4665 C   0  0  0  0  0  0  0  0  0  0  0  0
  7  8  2  0  0  0
  7 19  1  0  0  0
  7  1  1  0  0  0
  8  9  1  0  0  0
  9 10  2  0  0  0
 10 11  1  0  0  0
 10 20  1  0  0  0
 11 12  1  0  0  0
 11 19  2  0  0  0
 12 13  1  0  0  0
 13 14  2  0  0  0
 13 17  1  0  0  0
 14 15  1  0  0  0
 15 16  2  0  0  0
 16 17  1  0  0  0
 17 18  1  0  0  0
 18 19  1  0  0  0
 18 23  1  0  0  0
 23 24  2  0  0  0
 23 28  1  0  0  0
 24 25  1  0  0  0
 25 26  2  0  0  0
 25 29  1  0  0  0
 26 27  1  0  0  0
 27 28  2  0  0  0
  2  3  2  0  0  0
  3 31  1  0  0  0
 31 32  1  0  0  0
 32 33  2  0  0  0
 32 35  1  0  0  0
 35 36  2  0  0  0
 36 37  1  0  0  0
 37 46  1  0  0  0
 46 47  1  0  0  0
 47 48  2  0  0  0
 48 49  1  0  0  0
 49 50  2  0  0  0
 50 51  1  0  0  0
 51 52  2  0  0  0
 37 38  1  0  0  0
 38 39  2  0  0  0
 38 40  1  0  0  0
 40 41  2  0  0  0
 41 42  1  0  0  0
 42 43  2  0  0  0
 43 44  1  0  0  0
 44 45  2  0  0  0
  3  4  1  0  0  0
  4  5  1  0  0  0
  5  6  1  0  0  0
 45 35  1  0  0  0
 52 47  1  0  0  0
 45 40  1  0  0  0
  1  2  1  0  0  0
  1  5  2  0  0  0
 12 21  1  0  0  0
 29 30  1  0  0  0
 20 22  1  0  0  0
 31 34  1  0  0  0
M  END
>  <minimizedAffinity>
-8.51934

>  <minimizedRMSD>
4.36279

>  <molecular weight>
638.51

$$$$



 52 59  0  0  0  0  0  0  0  0999 V2000
   -7.5656    3.8680    6.0691 C   0  0  0  0  0  0  0  0  0  0  0  0
   -7.5430    2.5298    6.3147 N   0  0  0  0  0  0  0  0  0  0  0  0
   -7.6611    1.7486    5.2184 C   0  0  0  0  0  0  0  0  0  0  0  0
   -7.8725    2.6660    3.8229 S   0  0  0  0  0  0  0  0  0  0  0  0
   -7.7696    4.1299    4.6461 C   0  0  0  0  0  0  0  0  0  0  0  0
   -7.8847    5.4684    3.9931 C   0  0  0  0  0  0  0  0  0  0  0  0
   -7.4938    4.9041    7.0741 C   0  0  0  0  0  0  0  0  0  0  0  0
   -6.3093    5.5519    7.0892 N   0  0  0  0  0  0  0  0  0  0  0  0
   -6.1001    6.5345    8.0053 N   0  0  0  0  0  0  0  0  0  0  0  0
   -7.0790    6.8360    8.8852 C   0  0  0  0  0  0  0  0  0  0  0  0
   -8.3060    6.1951    8.9051 C   0  0  0  0  0  0  0  0  0  0  0  0
   -9.2898    6.5172    9.8554 N   0  0  0  0  0  0  0  0  0  0  0  0
  -10.4530    5.8404    9.9185 C   0  0  0  0  0  0  0  0  0  0  0  0
  -11.4776    5.9074   10.7399 N   0  0  0  0  0  0  0  0  0  0  0  0
  -12.3585    4.9279   10.3288 N   0  0  0  0  0  0  0  0  0  0  0  0
  -11.8893    4.2710    9.2735 N   0  0  0  0  0  0  0  0  0  0  0  0
  -10.7142    4.8575    9.0019 N   0  0  0  0  0  0  0  0  0  0  0  0
   -9.8540    4.4489    7.8923 C   0  0  0  0  0  0  0  0  0  0  0  0
   -8.5276    5.1930    7.9515 C   0  0  0  0  0  0  0  0  0  0  0  0
   -6.8017    7.8251    9.7914 O   0  0  0  0  0  0  0  0  0  0  0  0
   -9.1255    7.2530   10.4885 H   0  0  0  0  0  0  0  0  0  0  0  0
   -5.9701    8.2564    9.7744 H   0  0  0  0  0  0  0  0  0  0  0  0
  -10.5957    4.7120    6.6184 C   0  0  0  0  0  0  0  0  0  0  0  0
  -10.9379    6.0179    6.2676 C   0  0  0  0  0  0  0  0  0  0  0  0
  -11.6285    6.2631    5.0803 C   0  0  0  0  0  0  0  0  0  0  0  0
  -11.9788    5.2024    4.2458 C   0  0  0  0  0  0  0  0  0  0  0  0
  -11.6375    3.8954    4.5967 C   0  0  0  0  0  0  0  0  0  0  0  0
  -10.9450    3.6514    5.7840 C   0  0  0  0  0  0  0  0  0  0  0  0
  -11.9623    7.5368    4.7378 O   0  0  0  0  0  0  0  0  0  0  0  0
  -11.7270    8.2497    5.2985 H   0  0  0  0  0  0  0  0  0  0  0  0
   -7.7041    0.3171    5.2925 N   0  0  0  0  0  0  0  0  0  0  0  0
   -6.9137   -0.4630    6.2052 C   0  0  0  0  0  0  0  0  0  0  0  0
   -6.4846    0.0716    7.2584 O   0  0  0  0  0  0  0  0  0  0  0  0
   -8.3113   -0.1599    4.6818 H   0  0  0  0  0  0  0  0  0  0  0  0
   -6.7207   -1.9190    5.9634 C   0  0  0  0  0  0  0  0  0  0  0  0
   -7.4847   -2.7693    6.6976 N   0  0  0  0  0  0  0  0  0  0  0  0
   -7.3787   -4.0967    6.6373 N   0  0  0  0  0  0  0  0  0  0  0  0
   -6.4500   -4.6845    5.8258 C   0  0  0  0  0  0  0  0  0  0  0  0
   -6.3320   -5.9452    5.8039 O   0  0  0  0  0  0  0  0  0  0  0  0
   -5.6310   -3.8811    5.0146 C   0  0  0  0  0  0  0  0  0  0  0  0
   -4.6800   -4.4585    4.1500 C   0  0  0  0  0  0  0  0  0  0  0  0
   -3.8996   -3.6558    3.3197 C   0  0  0  0  0  0  0  0  0  0  0  0
   -4.0680   -2.2761    3.3236 C   0  0  0  0  0  0  0  0  0  0  0  0
   -5.0057   -1.6841    4.1708 C   0  0  0  0  0  0  0  0  0  0  0  0
   -5.7792   -2.4700    5.0562 C   0  0  0  0  0  0  0  0  0  0  0  0
   -8.2632   -4.8988    7.4902 C   0  0  0  0  0  0  0  0  0  0  0  0
   -7.6226   -5.2687    8.8084 C   0  0  0  0  0  0  0  0  0  0  0  0
   -7.8522   -6.5524    9.3375 C   0  0  0  0  0  0  0  0  0  0  0  0
   -7.3027   -6.9200   10.5711 C   0  0  0  0  0  0  0  0  0  0  0  0
   -6.5286   -6.0072   11.2926 C   0  0  0  0  0  0  0  0  0  0  0  0
   -6.3040   -4.7230   10.7850 C   0  0  0  0  0  0  0  0  0  0  0  0
   -6.8519   -4.3502    9.5535 C   0  0  0  0  0  0  0  0  0  0  0  0
  7  8  2  0  0  0
  7 19  1  0  0  0
  7  1  1  0  0  0
  8  9  1  0  0  0
  9 10  2  0  0  0
 10 11  1  0  0  0
 10 20  1  0  0  0
 11 12  1  0  0  0
 11 19  2  0  0  0
 12 13  1  0  0  0
 13 14  2  0  0  0
 13 17  1  0  0  0
 14 15  1  0  0  0
 15 16  2  0  0  0
 16 17  1  0  0  0
 17 18  1  0  0  0
 18 19  1  0  0  0
 18 23  1  0  0  0
 23 24  2  0  0  0
 23 28  1  0  0  0
 24 25  1  0  0  0
 25 26  2  0  0  0
 25 29  1  0  0  0
 26 27  1  0  0  0
 27 28  2  0  0  0
  2  3  2  0  0  0
  3 31  1  0  0  0
 31 32  1  0  0  0
 32 33  2  0  0  0
 32 35  1  0  0  0
 35 36  2  0  0  0
 36 37  1  0  0  0
 37 46  1  0  0  0
 46 47  1  0  0  0
 47 48  2  0  0  0
 48 49  1  0  0  0
 49 50  2  0  0  0
 50 51  1  0  0  0
 51 52  2  0  0  0
 37 38  1  0  0  0
 38 39  2  0  0  0
 38 40  1  0  0  0
 40 41  2  0  0  0
 41 42  1  0  0  0
 42 43  2  0  0  0
 43 44  1  0  0  0
 44 45  2  0  0  0
  3  4  1  0  0  0
  4  5  1  0  0  0
  5  6  1  0  0  0
 45 35  1  0  0  0
 52 47  1  0  0  0
 45 40  1  0  0  0
  1  2  1  0  0  0
  1  5  2  0  0  0
 12 21  1  0  0  0
 29 30  1  0  0  0
 20 22  1  0  0  0
 31 34  1  0  0  0
M  END
>  <minimizedAffinity>
-8.49769

>  <minimizedRMSD>
4.6206

>  <molecular weight>
638.51

$$$$



 39 45  0  0  0  0  0  0  0  0999 V2000
   -7.5350    5.0638    6.9365 C   0  0  0  0  0  0  0  0  0  0  0  0
   -6.3618    5.7292    6.9993 N   0  0  0  0  0  0  0  0  0  0  0  0
   -6.1683    6.6448    7.9854 N   0  0  0  0  0  0  0  0  0  0  0  0
   -7.1510    6.8635    8.8853 C   0  0  0  0  0  0  0  0  0  0  0  0
   -8.3667    6.2017    8.8580 C   0  0  0  0  0  0  0  0  0  0  0  0
   -9.3546    6.4356    9.8296 N   0  0  0  0  0  0  0  0  0  0  0  0
  -10.5059    5.7360    9.8426 C   0  0  0  0  0  0  0  0  0  0  0  0
  -11.5304    5.7244   10.6669 N   0  0  0  0  0  0  0  0  0  0  0  0
  -12.3948    4.7629   10.1846 N   0  0  0  0  0  0  0  0  0  0  0  0
  -11.9158    4.1939    9.0836 N   0  0  0  0  0  0  0  0  0  0  0  0
  -10.7513    4.8192    8.8559 N   0  0  0  0  0  0  0  0  0  0  0  0
   -9.8858    4.5086    7.7191 C   0  0  0  0  0  0  0  0  0  0  0  0
   -8.5724    5.2692    7.8330 C   0  0  0  0  0  0  0  0  0  0  0  0
   -6.8896    7.7875    9.8622 O   0  0  0  0  0  0  0  0  0  0  0  0
   -9.2022    7.1254   10.5153 H   0  0  0  0  0  0  0  0  0  0  0  0
   -6.0655    8.2332    9.8770 H   0  0  0  0  0  0  0  0  0  0  0  0
   -7.5903    4.1037    5.8577 C   0  0  0  0  0  0  0  0  0  0  0  0
   -7.4480    2.7249    5.9838 C   0  0  0  0  0  0  0  0  0  0  0  0
   -7.5982    1.8240    4.9095 C   0  0  0  0  0  0  0  0  0  0  0  0
   -7.9418    2.3782    3.6509 C   0  0  0  0  0  0  0  0  0  0  0  0
   -8.1183    1.5551    2.5393 C   0  0  0  0  0  0  0  0  0  0  0  0
   -7.9578    0.1782    2.6471 C   0  0  0  0  0  0  0  0  0  0  0  0
   -7.6136   -0.4027    3.8737 C   0  0  0  0  0  0  0  0  0  0  0  0
   -7.4533   -1.7953    3.9562 C   0  0  0  0  0  0  0  0  0  0  0  0
   -7.1069   -2.3942    5.1653 C   0  0  0  0  0  0  0  0  0  0  0  0
   -6.9188   -1.6129    6.3025 C   0  0  0  0  0  0  0  0  0  0  0  0
   -7.0752   -0.2258    6.2417 C   0  0  0  0  0  0  0  0  0  0  0  0
   -7.4267    0.4118    5.0272 C   0  0  0  0  0  0  0  0  0  0  0  0
   -8.0956    3.6900    3.5042 O   0  0  0  0  0  0  0  0  0  0  0  0
   -7.9547    4.5533    4.5015 C   0  0  0  0  0  0  0  0  0  0  0  0
   -8.0761    5.7847    4.2640 O   0  0  0  0  0  0  0  0  0  0  0  0
  -10.6337    4.8522    6.4682 C   0  0  0  0  0  0  0  0  0  0  0  0
  -10.9618    6.1800    6.1942 C   0  0  0  0  0  0  0  0  0  0  0  0
  -11.6581    6.5002    5.0284 C   0  0  0  0  0  0  0  0  0  0  0  0
  -12.0284    5.4927    4.1385 C   0  0  0  0  0  0  0  0  0  0  0  0
  -11.7012    4.1639    4.4124 C   0  0  0  0  0  0  0  0  0  0  0  0
  -11.0030    3.8447    5.5783 C   0  0  0  0  0  0  0  0  0  0  0  0
  -11.9781    7.7953    4.7608 O   0  0  0  0  0  0  0  0  0  0  0  0
  -11.7294    8.4725    5.3587 H   0  0  0  0  0  0  0  0  0  0  0  0
  1  2  2  0  0  0
  1 13  1  0  0  0
  1 17  1  0  0  0
  2  3  1  0  0  0
  3  4  2  0  0  0
  4  5  1  0  0  0
  4 14  1  0  0  0
  5  6  1  0  0  0
  5 13  2  0  0  0
  6  7  1  0  0  0
  7  8  2  0  0  0
  7 11  1  0  0  0
  8  9  1  0  0  0
  9 10  2  0  0  0
 10 11  1  0  0  0
 11 12  1  0  0  0
 12 13  1  0  0  0
 12 32  1  0  0  0
 32 33  2  0  0  0
 32 37  1  0  0  0
 33 34  1  0  0  0
 34 35  2  0  0  0
 34 38  1  0  0  0
 35 36  1  0  0  0
 36 37  2  0  0  0
 18 19  1  0  0  0
 19 20  2  0  0  0
 20 21  1  0  0  0
 21 22  2  0  0  0
 22 23  1  0  0  0
 23 24  2  0  0  0
 24 25  1  0  0  0
 25 26  2  0  0  0
 26 27  1  0  0  0
 27 28  2  0  0  0
 20 29  1  0  0  0
 29 30  1  0  0  0
 30 31  2  0  0  0
 28 19  1  0  0  0
 28 23  1  0  0  0
 17 18  2  0  0  0
 17 30  1  0  0  0
  6 15  1  0  0  0
 38 39  1  0  0  0
 14 16  1  0  0  0
M  END
>  <minimizedAffinity>
-8.49138

>  <minimizedRMSD>
1.41228

>  <molecular weight>
465.336

$$$$



 48 54  0  0  0  0  0  0  0  0999 V2000
   -7.6637    4.9696    6.8242 C   0  0  0  0  0  0  0  0  0  0  0  0
   -6.4699    5.5983    6.8762 N   0  0  0  0  0  0  0  0  0  0  0  0
   -6.2346    6.4980    7.8678 N   0  0  0  0  0  0  0  0  0  0  0  0
   -7.1973    6.7380    8.7837 C   0  0  0  0  0  0  0  0  0  0  0  0
   -8.4330    6.1139    8.7678 C   0  0  0  0  0  0  0  0  0  0  0  0
   -9.3995    6.3684    9.7556 N   0  0  0  0  0  0  0  0  0  0  0  0
  -10.5714    5.7042    9.7788 C   0  0  0  0  0  0  0  0  0  0  0  0
  -11.5840    5.7159   10.6175 N   0  0  0  0  0  0  0  0  0  0  0  0
  -12.4842    4.7859   10.1389 N   0  0  0  0  0  0  0  0  0  0  0  0
  -12.0384    4.2132    9.0259 N   0  0  0  0  0  0  0  0  0  0  0  0
  -10.8587    4.8048    8.7873 N   0  0  0  0  0  0  0  0  0  0  0  0
  -10.0192    4.4790    7.6353 C   0  0  0  0  0  0  0  0  0  0  0  0
   -8.6816    5.1980    7.7373 C   0  0  0  0  0  0  0  0  0  0  0  0
   -6.8940    7.6441    9.7651 O   0  0  0  0  0  0  0  0  0  0  0  0
   -9.2164    7.0466   10.4454 H   0  0  0  0  0  0  0  0  0  0  0  0
   -6.0565    8.0643    9.7723 H   0  0  0  0  0  0  0  0  0  0  0  0
  -10.7738    4.8573    6.3986 C   0  0  0  0  0  0  0  0  0  0  0  0
  -11.0391    6.1994    6.1266 C   0  0  0  0  0  0  0  0  0  0  0  0
  -11.7416    6.5519    4.9739 C   0  0  0  0  0  0  0  0  0  0  0  0
  -12.1808    5.5624    4.0951 C   0  0  0  0  0  0  0  0  0  0  0  0
  -11.9165    4.2194    4.3671 C   0  0  0  0  0  0  0  0  0  0  0  0
  -11.2120    3.8678    5.5198 C   0  0  0  0  0  0  0  0  0  0  0  0
  -12.0005    7.8610    4.7083 O   0  0  0  0  0  0  0  0  0  0  0  0
  -11.7054    8.5261    5.2987 H   0  0  0  0  0  0  0  0  0  0  0  0
   -7.7636    4.0222    5.7375 C   0  0  0  0  0  0  0  0  0  0  0  0
   -7.7450    2.6670    5.8658 N   0  0  0  0  0  0  0  0  0  0  0  0
   -7.9036    1.9812    4.7126 C   0  0  0  0  0  0  0  0  0  0  0  0
   -8.1136    3.0054    3.3982 S   0  0  0  0  0  0  0  0  0  0  0  0
   -7.9928    4.3977    4.3388 C   0  0  0  0  0  0  0  0  0  0  0  0
   -8.0698    5.7876    3.7913 C   0  0  0  0  0  0  0  0  0  0  0  0
   -7.8794    0.5516    4.6197 N   0  0  0  0  0  0  0  0  0  0  0  0
   -6.6791   -0.2328    4.7087 C   0  0  0  0  0  0  0  0  0  0  0  0
   -5.5526    0.3259    4.8014 O   0  0  0  0  0  0  0  0  0  0  0  0
   -8.7336    0.0802    4.4874 H   0  0  0  0  0  0  0  0  0  0  0  0
   -6.7444   -1.7323    4.6512 C   0  0  0  0  0  0  0  0  0  0  0  0
   -8.0589   -2.1852    4.3266 O   0  0  0  0  0  0  0  0  0  0  0  0
   -8.9309   -2.8497    5.2069 C   0  0  0  0  0  0  0  0  0  0  0  0
   -9.0437   -2.5064    6.5674 C   0  0  0  0  0  0  0  0  0  0  0  0
   -9.9453   -3.1843    7.3936 C   0  0  0  0  0  0  0  0  0  0  0  0
  -10.7484   -4.2182    6.8802 C   0  0  0  0  0  0  0  0  0  0  0  0
  -10.6198   -4.5672    5.5240 C   0  0  0  0  0  0  0  0  0  0  0  0
   -9.7180   -3.8896    4.6996 C   0  0  0  0  0  0  0  0  0  0  0  0
  -11.7222   -4.9227    7.7540 C   0  0  0  0  0  0  0  0  0  0  0  0
  -13.1048   -4.6920    7.6197 C   0  0  0  0  0  0  0  0  0  0  0  0
  -14.0167   -5.3539    8.4482 C   0  0  0  0  0  0  0  0  0  0  0  0
  -13.5610   -6.2500    9.4176 C   0  0  0  0  0  0  0  0  0  0  0  0
  -12.1924   -6.4874    9.5609 C   0  0  0  0  0  0  0  0  0  0  0  0
  -11.2760   -5.8299    8.7347 C   0  0  0  0  0  0  0  0  0  0  0  0
  1  2  2  0  0  0
  1 13  1  0  0  0
  1 25  1  0  0  0
  2  3  1  0  0  0
  3  4  2  0  0  0
  4  5  1  0  0  0
  4 14  1  0  0  0
  5  6  1  0  0  0
  5 13  2  0  0  0
  6  7  1  0  0  0
  7  8  2  0  0  0
  7 11  1  0  0  0
  8  9  1  0  0  0
  9 10  2  0  0  0
 10 11  1  0  0  0
 11 12  1  0  0  0
 12 13  1  0  0  0
 12 17  1  0  0  0
 17 18  2  0  0  0
 17 22  1  0  0  0
 18 19  1  0  0  0
 19 20  2  0  0  0
 19 23  1  0  0  0
 20 21  1  0  0  0
 21 22  2  0  0  0
 26 27  2  0  0  0
 27 31  1  0  0  0
 31 32  1  0  0  0
 32 33  2  0  0  0
 32 35  1  0  0  0
 35 36  1  0  0  0
 36 37  1  0  0  0
 37 38  2  0  0  0
 38 39  1  0  0  0
 39 40  2  0  0  0
 40 43  1  0  0  0
 43 44  2  0  0  0
 44 45  1  0  0  0
 45 46  2  0  0  0
 46 47  1  0  0  0
 47 48  2  0  0  0
 40 41  1  0  0  0
 41 42  2  0  0  0
 27 28  1  0  0  0
 28 29  1  0  0  0
 29 30  1  0  0  0
 42 37  1  0  0  0
 48 43  1  0  0  0
 25 26  1  0  0  0
 25 29  2  0  0  0
  6 15  1  0  0  0
 23 24  1  0  0  0
 14 16  1  0  0  0
 31 34  1  0  0  0
M  END
>  <minimizedAffinity>
-8.38313

>  <minimizedRMSD>
2.28724

>  <molecular weight>
586.476

$$$$



 52 58  0  0  0  0  0  0  0  0999 V2000
   -7.6783    4.5896    5.4152 C   0  0  0  0  0  0  0  0  0  0  0  0
   -7.8482    4.9961    4.1103 C   0  0  0  0  0  0  0  0  0  0  0  0
   -7.5773    3.9392    3.2606 C   0  0  0  0  0  0  0  0  0  0  0  0
   -7.6894    3.9925    1.7677 C   0  0  0  0  0  0  0  0  0  0  0  0
   -7.2074    2.8478    3.9695 N   0  0  0  0  0  0  0  0  0  0  0  0
   -7.2732    3.1911    5.2815 C   0  0  0  0  0  0  0  0  0  0  0  0
   -7.0180    2.2418    6.4189 C   0  0  0  0  0  0  0  0  0  0  0  0
   -7.7751    5.3284    6.6535 C   0  0  0  0  0  0  0  0  0  0  0  0
   -6.6657    6.0441    6.9362 N   0  0  0  0  0  0  0  0  0  0  0  0
   -6.6152    6.7660    8.0872 N   0  0  0  0  0  0  0  0  0  0  0  0
   -7.6730    6.7455    8.9263 C   0  0  0  0  0  0  0  0  0  0  0  0
   -8.8274    6.0238    8.6754 C   0  0  0  0  0  0  0  0  0  0  0  0
   -9.8966    6.0042    9.5871 N   0  0  0  0  0  0  0  0  0  0  0  0
  -10.9868    5.2419    9.3741 C   0  0  0  0  0  0  0  0  0  0  0  0
  -12.0625    5.0075   10.0931 N   0  0  0  0  0  0  0  0  0  0  0  0
  -12.8120    4.1014    9.3709 N   0  0  0  0  0  0  0  0  0  0  0  0
  -12.2132    3.7845    8.2279 N   0  0  0  0  0  0  0  0  0  0  0  0
  -11.0889    4.5156    8.2180 N   0  0  0  0  0  0  0  0  0  0  0  0
  -10.1237    4.4836    7.1201 C   0  0  0  0  0  0  0  0  0  0  0  0
   -8.8860    5.2920    7.4822 C   0  0  0  0  0  0  0  0  0  0  0  0
   -7.5549    7.4818   10.0754 O   0  0  0  0  0  0  0  0  0  0  0  0
   -9.8479    6.5593   10.3987 H   0  0  0  0  0  0  0  0  0  0  0  0
   -6.7718    7.9688   10.2414 H   0  0  0  0  0  0  0  0  0  0  0  0
  -10.8068    5.0098    5.8959 C   0  0  0  0  0  0  0  0  0  0  0  0
  -11.1956    6.3480    5.8350 C   0  0  0  0  0  0  0  0  0  0  0  0
  -11.8315    6.8385    4.6940 C   0  0  0  0  0  0  0  0  0  0  0  0
  -12.0808    5.9902    3.6158 C   0  0  0  0  0  0  0  0  0  0  0  0
  -11.6929    4.6510    3.6765 C   0  0  0  0  0  0  0  0  0  0  0  0
  -11.0551    4.1617    4.8178 C   0  0  0  0  0  0  0  0  0  0  0  0
  -12.2107    8.1438    4.6343 O   0  0  0  0  0  0  0  0  0  0  0  0
  -12.0432    8.7139    5.3587 H   0  0  0  0  0  0  0  0  0  0  0  0
   -6.9054    1.5172    3.4253 C   0  0  0  0  0  0  0  0  0  0  0  0
   -8.1268    0.6317    3.4340 C   0  0  0  0  0  0  0  0  0  0  0  0
   -9.1088    0.9149    2.6921 O   0  0  0  0  0  0  0  0  0  0  0  0
   -8.1992   -0.5572    4.2367 N   0  0  0  0  0  0  0  0  0  0  0  0
   -9.0503   -1.0519    4.2456 H   0  0  0  0  0  0  0  0  0  0  0  0
   -7.0980   -1.0853    5.0418 C   0  0  0  0  0  0  0  0  0  0  0  0
   -7.6258   -1.7567    6.3150 C   0  0  0  0  0  0  0  0  0  0  0  0
   -9.0759   -2.2670    6.1798 C   0  0  0  0  0  0  0  0  0  0  0  0
   -9.2098   -3.7325    6.4249 N   0  0  0  0  0  0  0  0  0  0  0  0
   -7.8651   -4.3666    6.5338 C   0  0  0  0  0  0  0  0  0  0  0  0
   -7.9121   -5.6989    7.2891 C   0  0  0  0  0  0  0  0  0  0  0  0
   -8.3970   -5.4585    8.6537 N   0  0  0  0  0  0  0  0  0  0  0  0
   -9.3227   -4.3407    8.8818 C   0  0  0  0  0  0  0  0  0  0  0  0
  -10.0983   -4.0187    7.5943 C   0  0  0  0  0  0  0  0  0  0  0  0
   -9.6729   -4.1580    5.6218 H   0  0  0  0  0  0  0  0  0  0  0  0
   -7.8543   -6.2023    9.7655 C   0  0  0  0  0  0  0  0  0  0  0  0
   -6.8904   -5.6203   10.6152 C   0  0  0  0  0  0  0  0  0  0  0  0
   -6.3666   -6.3435   11.6899 C   0  0  0  0  0  0  0  0  0  0  0  0
   -6.8032   -7.6489   11.9378 C   0  0  0  0  0  0  0  0  0  0  0  0
   -7.7539   -8.2388   11.0988 C   0  0  0  0  0  0  0  0  0  0  0  0
   -8.2787   -7.5221   10.0164 C   0  0  0  0  0  0  0  0  0  0  0  0
  8  9  2  0  0  0
  8 20  1  0  0  0
  8  1  1  0  0  0
  9 10  1  0  0  0
 10 11  2  0  0  0
 11 12  1  0  0  0
 11 21  1  0  0  0
 12 13  1  0  0  0
 12 20  2  0  0  0
 13 14  1  0  0  0
 14 15  2  0  0  0
 14 18  1  0  0  0
 15 16  1  0  0  0
 16 17  2  0  0  0
 17 18  1  0  0  0
 18 19  1  0  0  0
 19 20  1  0  0  0
 19 24  1  0  0  0
 24 25  2  0  0  0
 24 29  1  0  0  0
 25 26  1  0  0  0
 26 27  2  0  0  0
 26 30  1  0  0  0
 27 28  1  0  0  0
 28 29  2  0  0  0
  2  3  2  0  0  0
  3  4  1  0  0  0
  3  5  1  0  0  0
  5 32  1  0  0  0
 32 33  1  0  0  0
 33 34  2  0  0  0
 33 35  1  0  0  0
 35 37  1  0  0  0
 37 38  1  0  0  0
 38 39  1  0  0  0
 39 40  1  0  0  0
 40 41  1  0  0  0
 41 42  1  0  0  0
 42 43  1  0  0  0
 43 47  1  0  0  0
 47 48  2  0  0  0
 48 49  1  0  0  0
 49 50  2  0  0  0
 50 51  1  0  0  0
 51 52  2  0  0  0
 43 44  1  0  0  0
 44 45  1  0  0  0
  5  6  1  0  0  0
  6  7  1  0  0  0
 45 40  1  0  0  0
 52 47  1  0  0  0
  1  2  1  0  0  0
  1  6  2  0  0  0
 13 22  1  0  0  0
 30 31  1  0  0  0
 21 23  1  0  0  0
 35 36  1  0  0  0
 40 46  1  0  0  0
M  CHG 1  40   1
M  END
>  <minimizedAffinity>
-8.33188

>  <minimizedRMSD>
5.70174

>  <molecular weight>
603.465

$$$$



 47 54  0  0  0  0  0  0  0  0999 V2000
   -7.6376    4.9074    6.9693 C   0  0  0  0  0  0  0  0  0  0  0  0
   -6.4371    5.5252    6.9883 N   0  0  0  0  0  0  0  0  0  0  0  0
   -6.1903    6.4702    7.9340 N   0  0  0  0  0  0  0  0  0  0  0  0
   -7.1485    6.7652    8.8385 C   0  0  0  0  0  0  0  0  0  0  0  0
   -8.3907    6.1542    8.8554 C   0  0  0  0  0  0  0  0  0  0  0  0
   -9.3524    6.4673    9.8310 N   0  0  0  0  0  0  0  0  0  0  0  0
  -10.5311    5.8174    9.8888 C   0  0  0  0  0  0  0  0  0  0  0  0
  -11.5418    5.8812   10.7276 N   0  0  0  0  0  0  0  0  0  0  0  0
  -12.4527    4.9383   10.2969 N   0  0  0  0  0  0  0  0  0  0  0  0
  -12.0153    4.3068    9.2128 N   0  0  0  0  0  0  0  0  0  0  0  0
  -10.8299    4.8734    8.9433 N   0  0  0  0  0  0  0  0  0  0  0  0
   -9.9964    4.4823    7.8075 C   0  0  0  0  0  0  0  0  0  0  0  0
   -8.6511    5.1913    7.8717 C   0  0  0  0  0  0  0  0  0  0  0  0
   -6.8336    7.7154    9.7736 O   0  0  0  0  0  0  0  0  0  0  0  0
   -9.1607    7.1766   10.4862 H   0  0  0  0  0  0  0  0  0  0  0  0
   -5.9917    8.1265    9.7586 H   0  0  0  0  0  0  0  0  0  0  0  0
  -10.7496    4.8072    6.5548 C   0  0  0  0  0  0  0  0  0  0  0  0
  -11.0203    6.1360    6.2285 C   0  0  0  0  0  0  0  0  0  0  0  0
  -11.7216    6.4388    5.0609 C   0  0  0  0  0  0  0  0  0  0  0  0
  -12.1541    5.4128    4.2216 C   0  0  0  0  0  0  0  0  0  0  0  0
  -11.8843    4.0829    4.5479 C   0  0  0  0  0  0  0  0  0  0  0  0
  -11.1811    3.7812    5.7155 C   0  0  0  0  0  0  0  0  0  0  0  0
  -11.9857    7.7349    4.7424 O   0  0  0  0  0  0  0  0  0  0  0  0
  -11.6951    8.4245    5.3063 H   0  0  0  0  0  0  0  0  0  0  0  0
   -7.7498    3.9087    5.9308 C   0  0  0  0  0  0  0  0  0  0  0  0
   -7.7334    2.5661    6.0737 N   0  0  0  0  0  0  0  0  0  0  0  0
   -7.9293    2.0007    4.8933 N   0  0  0  0  0  0  0  0  0  0  0  0
   -8.0916    2.9782    3.9797 C   0  0  0  0  0  0  0  0  0  0  0  0
   -8.3521    2.7215    2.3772 S   0  0  0  0  0  0  0  0  0  0  0  0
   -7.9964    4.1933    4.5595 N   0  0  0  0  0  0  0  0  0  0  0  0
   -8.0712    5.5040    3.9124 C   0  0  0  0  0  0  0  0  0  0  0  0
   -7.9132    0.5565    4.6683 C   0  0  0  0  0  0  0  0  0  0  0  0
   -6.5710    0.1266    4.2261 N   0  0  0  0  0  0  0  0  0  0  0  0
   -5.5064    0.7076    5.0693 C   0  0  0  0  0  0  0  0  0  0  0  0
   -4.1280    0.3768    4.4981 C   0  0  0  0  0  0  0  0  0  0  0  0
   -3.9357   -1.1342    4.3949 C   0  0  0  0  0  0  0  0  0  0  0  0
   -5.0668   -1.7756    3.5846 C   0  0  0  0  0  0  0  0  0  0  0  0
   -6.4720   -1.3480    4.0613 C   0  0  0  0  0  0  0  0  0  0  0  0
   -6.9503   -2.1409    5.2646 C   0  0  0  0  0  0  0  0  0  0  0  0
   -8.2672   -2.2427    5.5790 N   0  0  0  0  0  0  0  0  0  0  0  0
   -8.4572   -2.9985    6.6903 C   0  0  0  0  0  0  0  0  0  0  0  0
   -9.7045   -3.2757    7.2526 C   0  0  0  0  0  0  0  0  0  0  0  0
   -9.7616   -4.0743    8.4084 C   0  0  0  0  0  0  0  0  0  0  0  0
   -8.5797   -4.5831    8.9839 C   0  0  0  0  0  0  0  0  0  0  0  0
   -7.3309   -4.2975    8.4088 C   0  0  0  0  0  0  0  0  0  0  0  0
   -7.3035   -3.5040    7.2651 C   0  0  0  0  0  0  0  0  0  0  0  0
   -5.9830   -2.9995    6.3662 S   0  0  0  0  0  0  0  0  0  0  0  0
  1  2  2  0  0  0
  1 13  1  0  0  0
  1 25  1  0  0  0
  2  3  1  0  0  0
  3  4  2  0  0  0
  4  5  1  0  0  0
  4 14  1  0  0  0
  5  6  1  0  0  0
  5 13  2  0  0  0
  6  7  1  0  0  0
  7  8  2  0  0  0
  7 11  1  0  0  0
  8  9  1  0  0  0
  9 10  2  0  0  0
 10 11  1  0  0  0
 11 12  1  0  0  0
 12 13  1  0  0  0
 12 17  1  0  0  0
 17 18  2  0  0  0
 17 22  1  0  0  0
 18 19  1  0  0  0
 19 20  2  0  0  0
 19 23  1  0  0  0
 20 21  1  0  0  0
 21 22  2  0  0  0
 26 27  1  0  0  0
 27 32  1  0  0  0
 32 33  1  0  0  0
 33 34  1  0  0  0
 34 35  1  0  0  0
 35 36  1  0  0  0
 36 37  1  0  0  0
 37 38  1  0  0  0
 38 39  1  0  0  0
 39 40  2  0  0  0
 40 41  1  0  0  0
 41 42  2  0  0  0
 42 43  1  0  0  0
 43 44  2  0  0  0
 44 45  1  0  0  0
 45 46  2  0  0  0
 46 47  1  0  0  0
 27 28  1  0  0  0
 28 29  2  0  0  0
 28 30  1  0  0  0
 30 31  1  0  0  0
 38 33  1  0  0  0
 47 39  1  0  0  0
 46 41  1  0  0  0
 25 26  2  0  0  0
 25 30  1  0  0  0
  6 15  1  0  0  0
 23 24  1  0  0  0
 14 16  1  0  0  0
M  END
>  <minimizedAffinity>
-8.28071

>  <minimizedRMSD>
3.64936

>  <molecular weight>
603.533

$$$$
