
     RDKit          3D

 31 36  0  0  0  0  0  0  0  0999 V2000
   -7.6410    4.9930    6.8080 C   0  0  0  0  0  0  0  0  0  1  0  0
   -7.7310    4.0530    5.7140 C   0  0  0  0  0  0  0  0  0  2  0  0
   -6.4520    5.6300    6.8680 N   0  0  0  0  0  0  0  0  0  0  0  0
   -6.2260    6.5240    7.8670 N   0  0  0  0  0  0  0  0  0  0  0  0
   -7.1930    6.7500    8.7820 C   0  0  0  0  0  0  0  0  0  0  0  0
   -8.4240    6.1170    8.7580 C   0  0  0  0  0  0  0  0  0  0  0  0
   -9.3950    6.3570    9.7450 N   0  0  0  0  0  0  0  0  0  0  0  0
  -10.5620    5.6840    9.7600 C   0  0  0  0  0  0  0  0  0  0  0  0
  -11.5770    5.6820   10.5960 N   0  0  0  0  0  0  0  0  0  0  0  0
  -12.4690    4.7490   10.1080 N   0  0  0  0  0  0  0  0  0  0  0  0
  -12.0160    4.1880    8.9920 N   0  0  0  0  0  0  0  0  0  0  0  0
  -10.8400    4.7900    8.7610 N   0  0  0  0  0  0  0  0  0  0  0  0
   -9.9950    4.4790    7.6090 C   0  0  0  0  0  0  0  0  0  0  0  0
   -8.6630    5.2070    7.7200 C   0  0  0  0  0  0  0  0  0  0  0  0
  -10.7490    4.8610    6.3730 C   0  0  0  0  0  0  0  0  0  0  0  0
  -11.0350    6.2020    6.1170 C   0  0  0  0  0  0  0  0  0  0  0  0
  -11.7370    6.5580    4.9650 C   0  0  0  0  0  0  0  0  0  0  0  0
  -12.1550    5.5730    4.0710 C   0  0  0  0  0  0  0  0  0  0  0  0
  -11.8700    4.2310    4.3270 C   0  0  0  0  0  0  0  0  0  0  0  0
  -11.1660    3.8760    5.4790 C   0  0  0  0  0  0  0  0  0  0  0  0
  -12.0160    7.8660    4.7150 O   0  0  0  0  0  0  0  0  0  0  0  0
   -6.8990    7.6510    9.7710 O   0  0  0  0  0  0  0  0  0  0  0  0
   -6.7811    3.0590    5.4672 C   0  0  0  0  0  0  0  0  0  0  0  0
   -6.9376    2.0533    4.5143 C   0  0  0  0  0  0  0  0  0  0  0  0
   -8.1078    1.9731    3.7629 C   0  0  0  0  0  0  0  0  0  0  0  0
   -9.1279    2.9174    3.9415 C   0  0  0  0  0  0  0  0  0  0  0  0
  -10.2921    2.8457    3.1600 C   0  0  0  0  0  0  0  0  0  0  0  0
  -11.2961    3.8035    3.3037 C   0  0  0  0  0  0  0  0  0  0  0  0
  -11.1429    4.8463    4.2165 C   0  0  0  0  0  0  0  0  0  0  0  0
   -9.9926    4.9307    5.0048 C   0  0  0  0  0  0  0  0  0  0  0  0
   -8.9768    3.9560    4.9013 C   0  0  0  0  0  0  0  0  0  0  0  0
  1  3  4  0
  1 14  4  0
  1  2  1  0
  3  4  4  0
  4  5  4  0
  5  6  4  0
  5 22  1  0
  6  7  1  0
  6 14  4  0
  7  8  1  0
  8  9  4  0
  8 12  4  0
  9 10  4  0
 10 11  4  0
 11 12  4  0
 12 13  1  0
 13 14  1  0
 13 15  1  6
 15 16  4  0
 15 20  4  0
 16 17  4  0
 17 18  4  0
 17 21  1  0
 18 19  4  0
 19 20  4  0
 23 24  4  0
 24 25  4  0
 25 26  4  0
 26 27  4  0
 27 28  4  0
 28 29  4  0
 29 30  4  0
 30 31  4  0
 31 26  4  0
  2 23  4  0
  2 31  4  0
M  END
$$$$

     RDKit          3D

 31 36  0  0  0  0  0  0  0  0999 V2000
   -7.6410    4.9930    6.8080 C   0  0  0  0  0  0  0  0  0  1  0  0
   -7.7310    4.0530    5.7140 C   0  0  0  0  0  0  0  0  0  2  0  0
   -6.4520    5.6300    6.8680 N   0  0  0  0  0  0  0  0  0  0  0  0
   -6.2260    6.5240    7.8670 N   0  0  0  0  0  0  0  0  0  0  0  0
   -7.1930    6.7500    8.7820 C   0  0  0  0  0  0  0  0  0  0  0  0
   -8.4240    6.1170    8.7580 C   0  0  0  0  0  0  0  0  0  0  0  0
   -9.3950    6.3570    9.7450 N   0  0  0  0  0  0  0  0  0  0  0  0
  -10.5620    5.6840    9.7600 C   0  0  0  0  0  0  0  0  0  0  0  0
  -11.5770    5.6820   10.5960 N   0  0  0  0  0  0  0  0  0  0  0  0
  -12.4690    4.7490   10.1080 N   0  0  0  0  0  0  0  0  0  0  0  0
  -12.0160    4.1880    8.9920 N   0  0  0  0  0  0  0  0  0  0  0  0
  -10.8400    4.7900    8.7610 N   0  0  0  0  0  0  0  0  0  0  0  0
   -9.9950    4.4790    7.6090 C   0  0  0  0  0  0  0  0  0  0  0  0
   -8.6630    5.2070    7.7200 C   0  0  0  0  0  0  0  0  0  0  0  0
  -10.7490    4.8610    6.3730 C   0  0  0  0  0  0  0  0  0  0  0  0
  -11.0350    6.2020    6.1170 C   0  0  0  0  0  0  0  0  0  0  0  0
  -11.7370    6.5580    4.9650 C   0  0  0  0  0  0  0  0  0  0  0  0
  -12.1550    5.5730    4.0710 C   0  0  0  0  0  0  0  0  0  0  0  0
  -11.8700    4.2310    4.3270 C   0  0  0  0  0  0  0  0  0  0  0  0
  -11.1660    3.8760    5.4790 C   0  0  0  0  0  0  0  0  0  0  0  0
  -12.0160    7.8660    4.7150 O   0  0  0  0  0  0  0  0  0  0  0  0
   -6.8990    7.6510    9.7710 O   0  0  0  0  0  0  0  0  0  0  0  0
   -6.8406    3.0948    5.3805 N   0  0  0  0  0  0  0  0  0  0  0  0
   -7.3111    2.3706    4.3762 N   0  0  0  0  0  0  0  0  0  0  0  0
   -8.5344    2.8523    4.0849 C   0  0  0  0  0  0  0  0  0  0  0  0
   -8.8636    3.8869    4.8828 N   0  0  0  0  0  0  0  0  0  0  0  0
  -10.0479    4.7449    4.7738 C   0  0  0  0  0  0  0  0  0  0  0  0
  -10.1215    5.4081    3.3919 C   0  0  0  0  0  0  0  0  0  0  0  0
  -10.6282    4.4593    2.2945 C   0  0  0  0  0  0  0  0  0  0  0  0
   -9.6054    3.3873    1.8881 C   0  0  0  0  0  0  0  0  0  0  0  0
   -9.3887    2.3264    2.9730 C   0  0  0  0  0  0  0  0  0  0  0  0
  1  3  4  0
  1 14  4  0
  1  2  1  0
  3  4  4  0
  4  5  4  0
  5  6  4  0
  5 22  1  0
  6  7  1  0
  6 14  4  0
  7  8  1  0
  8  9  4  0
  8 12  4  0
  9 10  4  0
 10 11  4  0
 11 12  4  0
 12 13  1  0
 13 14  1  0
 13 15  1  6
 15 16  4  0
 15 20  4  0
 16 17  4  0
 17 18  4  0
 17 21  1  0
 18 19  4  0
 19 20  4  0
 23 24  4  0
 24 25  4  0
 25 26  4  0
 26 27  1  0
 27 28  1  0
 28 29  1  0
 29 30  1  0
 30 31  1  0
 31 25  1  0
  2 23  4  0
  2 26  4  0
M  END
$$$$

     RDKit          3D

 31 36  0  0  0  0  0  0  0  0999 V2000
   -7.6410    4.9930    6.8080 C   0  0  0  0  0  0  0  0  0  1  0  0
   -7.7310    4.0530    5.7140 C   0  0  0  0  0  0  0  0  0  2  0  0
   -6.4520    5.6300    6.8680 N   0  0  0  0  0  0  0  0  0  0  0  0
   -6.2260    6.5240    7.8670 N   0  0  0  0  0  0  0  0  0  0  0  0
   -7.1930    6.7500    8.7820 C   0  0  0  0  0  0  0  0  0  0  0  0
   -8.4240    6.1170    8.7580 C   0  0  0  0  0  0  0  0  0  0  0  0
   -9.3950    6.3570    9.7450 N   0  0  0  0  0  0  0  0  0  0  0  0
  -10.5620    5.6840    9.7600 C   0  0  0  0  0  0  0  0  0  0  0  0
  -11.5770    5.6820   10.5960 N   0  0  0  0  0  0  0  0  0  0  0  0
  -12.4690    4.7490   10.1080 N   0  0  0  0  0  0  0  0  0  0  0  0
  -12.0160    4.1880    8.9920 N   0  0  0  0  0  0  0  0  0  0  0  0
  -10.8400    4.7900    8.7610 N   0  0  0  0  0  0  0  0  0  0  0  0
   -9.9950    4.4790    7.6090 C   0  0  0  0  0  0  0  0  0  0  0  0
   -8.6630    5.2070    7.7200 C   0  0  0  0  0  0  0  0  0  0  0  0
  -10.7490    4.8610    6.3730 C   0  0  0  0  0  0  0  0  0  0  0  0
  -11.0350    6.2020    6.1170 C   0  0  0  0  0  0  0  0  0  0  0  0
  -11.7370    6.5580    4.9650 C   0  0  0  0  0  0  0  0  0  0  0  0
  -12.1550    5.5730    4.0710 C   0  0  0  0  0  0  0  0  0  0  0  0
  -11.8700    4.2310    4.3270 C   0  0  0  0  0  0  0  0  0  0  0  0
  -11.1660    3.8760    5.4790 C   0  0  0  0  0  0  0  0  0  0  0  0
  -12.0160    7.8660    4.7150 O   0  0  0  0  0  0  0  0  0  0  0  0
   -6.8990    7.6510    9.7710 O   0  0  0  0  0  0  0  0  0  0  0  0
   -6.8063    3.1547    5.3177 N   0  0  0  0  0  0  0  0  0  0  0  0
   -7.2946    2.3923    4.3507 N   0  0  0  0  0  0  0  0  0  0  0  0
   -8.5627    2.7945    4.1404 C   0  0  0  0  0  0  0  0  0  0  0  0
   -8.9022    3.8110    4.9525 N   0  0  0  0  0  0  0  0  0  0  0  0
  -10.1489    4.5763    4.9025 C   0  0  0  0  0  0  0  0  0  0  0  0
  -11.3375    3.6808    5.2726 C   0  0  0  0  0  0  0  0  0  0  0  0
  -11.7751    2.7700    4.1136 C   0  0  0  0  0  0  0  0  0  0  0  0
  -10.7657    1.6580    3.7804 C   0  0  0  0  0  0  0  0  0  0  0  0
   -9.4752    2.1781    3.1276 C   0  0  0  0  0  0  0  0  0  0  0  0
  1  3  4  0
  1 14  4  0
  1  2  1  0
  3  4  4  0
  4  5  4  0
  5  6  4  0
  5 22  1  0
  6  7  1  0
  6 14  4  0
  7  8  1  0
  8  9  4  0
  8 12  4  0
  9 10  4  0
 10 11  4  0
 11 12  4  0
 12 13  1  0
 13 14  1  0
 13 15  1  6
 15 16  4  0
 15 20  4  0
 16 17  4  0
 17 18  4  0
 17 21  1  0
 18 19  4  0
 19 20  4  0
 23 24  4  0
 24 25  4  0
 25 26  4  0
 26 27  1  0
 27 28  1  0
 28 29  1  0
 29 30  1  0
 30 31  1  0
 31 25  1  0
  2 23  4  0
  2 26  4  0
M  END
$$$$

     RDKit          3D

 31 36  0  0  0  0  0  0  0  0999 V2000
   -7.6410    4.9930    6.8080 C   0  0  0  0  0  0  0  0  0  1  0  0
   -7.7310    4.0530    5.7140 C   0  0  0  0  0  0  0  0  0  2  0  0
   -6.4520    5.6300    6.8680 N   0  0  0  0  0  0  0  0  0  0  0  0
   -6.2260    6.5240    7.8670 N   0  0  0  0  0  0  0  0  0  0  0  0
   -7.1930    6.7500    8.7820 C   0  0  0  0  0  0  0  0  0  0  0  0
   -8.4240    6.1170    8.7580 C   0  0  0  0  0  0  0  0  0  0  0  0
   -9.3950    6.3570    9.7450 N   0  0  0  0  0  0  0  0  0  0  0  0
  -10.5620    5.6840    9.7600 C   0  0  0  0  0  0  0  0  0  0  0  0
  -11.5770    5.6820   10.5960 N   0  0  0  0  0  0  0  0  0  0  0  0
  -12.4690    4.7490   10.1080 N   0  0  0  0  0  0  0  0  0  0  0  0
  -12.0160    4.1880    8.9920 N   0  0  0  0  0  0  0  0  0  0  0  0
  -10.8400    4.7900    8.7610 N   0  0  0  0  0  0  0  0  0  0  0  0
   -9.9950    4.4790    7.6090 C   0  0  0  0  0  0  0  0  0  0  0  0
   -8.6630    5.2070    7.7200 C   0  0  0  0  0  0  0  0  0  0  0  0
  -10.7490    4.8610    6.3730 C   0  0  0  0  0  0  0  0  0  0  0  0
  -11.0350    6.2020    6.1170 C   0  0  0  0  0  0  0  0  0  0  0  0
  -11.7370    6.5580    4.9650 C   0  0  0  0  0  0  0  0  0  0  0  0
  -12.1550    5.5730    4.0710 C   0  0  0  0  0  0  0  0  0  0  0  0
  -11.8700    4.2310    4.3270 C   0  0  0  0  0  0  0  0  0  0  0  0
  -11.1660    3.8760    5.4790 C   0  0  0  0  0  0  0  0  0  0  0  0
  -12.0160    7.8660    4.7150 O   0  0  0  0  0  0  0  0  0  0  0  0
   -6.8990    7.6510    9.7710 O   0  0  0  0  0  0  0  0  0  0  0  0
   -6.8644    3.0596    5.4249 N   0  0  0  0  0  0  0  0  0  0  0  0
   -7.3541    2.2916    4.4651 N   0  0  0  0  0  0  0  0  0  0  0  0
   -8.5680    2.7840    4.1459 C   0  0  0  0  0  0  0  0  0  0  0  0
   -8.8833    3.8580    4.9114 N   0  0  0  0  0  0  0  0  0  0  0  0
   -9.9889    4.8110    4.7236 C   0  0  0  0  0  0  0  0  0  0  0  0
  -11.3101    4.0857    4.4489 C   0  0  0  0  0  0  0  0  0  0  0  0
  -11.4935    3.6894    2.9685 C   0  0  0  0  0  0  0  0  0  0  0  0
  -10.2283    3.1447    2.2779 C   0  0  0  0  0  0  0  0  0  0  0  0
   -9.4668    2.1251    3.1331 C   0  0  0  0  0  0  0  0  0  0  0  0
  1  3  4  0
  1 14  4  0
  1  2  1  0
  3  4  4  0
  4  5  4  0
  5  6  4  0
  5 22  1  0
  6  7  1  0
  6 14  4  0
  7  8  1  0
  8  9  4  0
  8 12  4  0
  9 10  4  0
 10 11  4  0
 11 12  4  0
 12 13  1  0
 13 14  1  0
 13 15  1  6
 15 16  4  0
 15 20  4  0
 16 17  4  0
 17 18  4  0
 17 21  1  0
 18 19  4  0
 19 20  4  0
 23 24  4  0
 24 25  4  0
 25 26  4  0
 26 27  1  0
 27 28  1  0
 28 29  1  0
 29 30  1  0
 30 31  1  0
 31 25  1  0
  2 23  4  0
  2 26  4  0
M  END
$$$$

     RDKit          3D

 29 33  0  0  0  0  0  0  0  0999 V2000
   -7.6410    4.9930    6.8080 C   0  0  0  0  0  0  0  0  0  1  0  0
   -7.7310    4.0530    5.7140 C   0  0  0  0  0  0  0  0  0  2  0  0
   -6.4520    5.6300    6.8680 N   0  0  0  0  0  0  0  0  0  0  0  0
   -6.2260    6.5240    7.8670 N   0  0  0  0  0  0  0  0  0  0  0  0
   -7.1930    6.7500    8.7820 C   0  0  0  0  0  0  0  0  0  0  0  0
   -8.4240    6.1170    8.7580 C   0  0  0  0  0  0  0  0  0  0  0  0
   -9.3950    6.3570    9.7450 N   0  0  0  0  0  0  0  0  0  0  0  0
  -10.5620    5.6840    9.7600 C   0  0  0  0  0  0  0  0  0  0  0  0
  -11.5770    5.6820   10.5960 N   0  0  0  0  0  0  0  0  0  0  0  0
  -12.4690    4.7490   10.1080 N   0  0  0  0  0  0  0  0  0  0  0  0
  -12.0160    4.1880    8.9920 N   0  0  0  0  0  0  0  0  0  0  0  0
  -10.8400    4.7900    8.7610 N   0  0  0  0  0  0  0  0  0  0  0  0
   -9.9950    4.4790    7.6090 C   0  0  0  0  0  0  0  0  0  0  0  0
   -8.6630    5.2070    7.7200 C   0  0  0  0  0  0  0  0  0  0  0  0
  -10.7490    4.8610    6.3730 C   0  0  0  0  0  0  0  0  0  0  0  0
  -11.0350    6.2020    6.1170 C   0  0  0  0  0  0  0  0  0  0  0  0
  -11.7370    6.5580    4.9650 C   0  0  0  0  0  0  0  0  0  0  0  0
  -12.1550    5.5730    4.0710 C   0  0  0  0  0  0  0  0  0  0  0  0
  -11.8700    4.2310    4.3270 C   0  0  0  0  0  0  0  0  0  0  0  0
  -11.1660    3.8760    5.4790 C   0  0  0  0  0  0  0  0  0  0  0  0
  -12.0160    7.8660    4.7150 O   0  0  0  0  0  0  0  0  0  0  0  0
   -6.8990    7.6510    9.7710 O   0  0  0  0  0  0  0  0  0  0  0  0
   -6.7690    3.0959    5.3841 C   0  0  0  0  0  0  0  0  0  0  0  0
   -6.9452    2.1455    4.3744 C   0  0  0  0  0  0  0  0  0  0  0  0
   -8.1423    2.1012    3.6544 C   0  0  0  0  0  0  0  0  0  0  0  0
   -8.3813    0.8015    2.2757 Br  0  0  0  0  0  0  0  0  0  0  0  0
   -9.1604    3.0164    3.9373 C   0  0  0  0  0  0  0  0  0  0  0  0
   -8.9898    3.9701    4.9462 C   0  0  0  0  0  0  0  0  0  0  0  0
   -9.9718    4.8814    5.1612 F   0  0  0  0  0  0  0  0  0  0  0  0
  1  3  4  0
  1 14  4  0
  1  2  1  0
  3  4  4  0
  4  5  4  0
  5  6  4  0
  5 22  1  0
  6  7  1  0
  6 14  4  0
  7  8  1  0
  8  9  4  0
  8 12  4  0
  9 10  4  0
 10 11  4  0
 11 12  4  0
 12 13  1  0
 13 14  1  0
 13 15  1  6
 15 16  4  0
 15 20  4  0
 16 17  4  0
 17 18  4  0
 17 21  1  0
 18 19  4  0
 19 20  4  0
 23 24  4  0
 24 25  4  0
 25 26  1  0
 25 27  4  0
 27 28  4  0
 28 29  1  0
  2 23  4  0
  2 28  4  0
M  END
$$$$

     RDKit          3D

 27 31  0  0  0  0  0  0  0  0999 V2000
   -7.6410    4.9930    6.8080 C   0  0  0  0  0  0  0  0  0  1  0  0
   -7.7310    4.0530    5.7140 C   0  0  0  0  0  0  0  0  0  2  0  0
   -6.4520    5.6300    6.8680 N   0  0  0  0  0  0  0  0  0  0  0  0
   -6.2260    6.5240    7.8670 N   0  0  0  0  0  0  0  0  0  0  0  0
   -7.1930    6.7500    8.7820 C   0  0  0  0  0  0  0  0  0  0  0  0
   -8.4240    6.1170    8.7580 C   0  0  0  0  0  0  0  0  0  0  0  0
   -9.3950    6.3570    9.7450 N   0  0  0  0  0  0  0  0  0  0  0  0
  -10.5620    5.6840    9.7600 C   0  0  0  0  0  0  0  0  0  0  0  0
  -11.5770    5.6820   10.5960 N   0  0  0  0  0  0  0  0  0  0  0  0
  -12.4690    4.7490   10.1080 N   0  0  0  0  0  0  0  0  0  0  0  0
  -12.0160    4.1880    8.9920 N   0  0  0  0  0  0  0  0  0  0  0  0
  -10.8400    4.7900    8.7610 N   0  0  0  0  0  0  0  0  0  0  0  0
   -9.9950    4.4790    7.6090 C   0  0  0  0  0  0  0  0  0  0  0  0
   -8.6630    5.2070    7.7200 C   0  0  0  0  0  0  0  0  0  0  0  0
  -10.7490    4.8610    6.3730 C   0  0  0  0  0  0  0  0  0  0  0  0
  -11.0350    6.2020    6.1170 C   0  0  0  0  0  0  0  0  0  0  0  0
  -11.7370    6.5580    4.9650 C   0  0  0  0  0  0  0  0  0  0  0  0
  -12.1550    5.5730    4.0710 C   0  0  0  0  0  0  0  0  0  0  0  0
  -11.8700    4.2310    4.3270 C   0  0  0  0  0  0  0  0  0  0  0  0
  -11.1660    3.8760    5.4790 C   0  0  0  0  0  0  0  0  0  0  0  0
  -12.0160    7.8660    4.7150 O   0  0  0  0  0  0  0  0  0  0  0  0
   -6.8990    7.6510    9.7710 O   0  0  0  0  0  0  0  0  0  0  0  0
   -6.9103    2.9999    5.3663 C   0  0  0  0  0  0  0  0  0  0  0  0
   -7.4974    2.3629    4.2903 C   0  0  0  0  0  0  0  0  0  0  0  0
   -8.6572    2.9745    3.9777 N   0  0  0  0  0  0  0  0  0  0  0  0
   -8.8263    3.9771    4.8250 N   0  0  0  0  0  0  0  0  0  0  0  0
   -9.9537    4.8999    4.7461 C   0  0  0  0  0  0  0  0  0  0  0  0
  1  3  4  0
  1 14  4  0
  1  2  1  0
  3  4  4  0
  4  5  4  0
  5  6  4  0
  5 22  1  0
  6  7  1  0
  6 14  4  0
  7  8  1  0
  8  9  4  0
  8 12  4  0
  9 10  4  0
 10 11  4  0
 11 12  4  0
 12 13  1  0
 13 14  1  0
 13 15  1  6
 15 16  4  0
 15 20  4  0
 16 17  4  0
 17 18  4  0
 17 21  1  0
 18 19  4  0
 19 20  4  0
 23 24  4  0
 24 25  4  0
 25 26  4  0
 26 27  1  0
  2 23  4  0
  2 26  4  0
M  END
$$$$

     RDKit          3D

 29 33  0  0  0  0  0  0  0  0999 V2000
   -7.6410    4.9930    6.8080 C   0  0  0  0  0  0  0  0  0  1  0  0
   -7.7310    4.0530    5.7140 C   0  0  0  0  0  0  0  0  0  2  0  0
   -6.4520    5.6300    6.8680 N   0  0  0  0  0  0  0  0  0  0  0  0
   -6.2260    6.5240    7.8670 N   0  0  0  0  0  0  0  0  0  0  0  0
   -7.1930    6.7500    8.7820 C   0  0  0  0  0  0  0  0  0  0  0  0
   -8.4240    6.1170    8.7580 C   0  0  0  0  0  0  0  0  0  0  0  0
   -9.3950    6.3570    9.7450 N   0  0  0  0  0  0  0  0  0  0  0  0
  -10.5620    5.6840    9.7600 C   0  0  0  0  0  0  0  0  0  0  0  0
  -11.5770    5.6820   10.5960 N   0  0  0  0  0  0  0  0  0  0  0  0
  -12.4690    4.7490   10.1080 N   0  0  0  0  0  0  0  0  0  0  0  0
  -12.0160    4.1880    8.9920 N   0  0  0  0  0  0  0  0  0  0  0  0
  -10.8400    4.7900    8.7610 N   0  0  0  0  0  0  0  0  0  0  0  0
   -9.9950    4.4790    7.6090 C   0  0  0  0  0  0  0  0  0  0  0  0
   -8.6630    5.2070    7.7200 C   0  0  0  0  0  0  0  0  0  0  0  0
  -10.7490    4.8610    6.3730 C   0  0  0  0  0  0  0  0  0  0  0  0
  -11.0350    6.2020    6.1170 C   0  0  0  0  0  0  0  0  0  0  0  0
  -11.7370    6.5580    4.9650 C   0  0  0  0  0  0  0  0  0  0  0  0
  -12.1550    5.5730    4.0710 C   0  0  0  0  0  0  0  0  0  0  0  0
  -11.8700    4.2310    4.3270 C   0  0  0  0  0  0  0  0  0  0  0  0
  -11.1660    3.8760    5.4790 C   0  0  0  0  0  0  0  0  0  0  0  0
  -12.0160    7.8660    4.7150 O   0  0  0  0  0  0  0  0  0  0  0  0
   -6.8990    7.6510    9.7710 O   0  0  0  0  0  0  0  0  0  0  0  0
   -6.7060    3.1597    5.3819 C   0  0  0  0  0  0  0  0  0  0  0  0
   -6.8142    2.1870    4.3798 C   0  0  0  0  0  0  0  0  0  0  0  0
   -5.6687    1.2638    4.0989 C   0  0  0  0  0  0  0  0  0  0  0  0
   -8.0245    2.0357    3.6967 C   0  0  0  0  0  0  0  0  0  0  0  0
   -9.0993    2.8835    3.9732 C   0  0  0  0  0  0  0  0  0  0  0  0
   -8.9884    3.8923    4.9443 C   0  0  0  0  0  0  0  0  0  0  0  0
  -10.1633    4.8038    5.1592 C   0  0  0  0  0  0  0  0  0  0  0  0
  1  3  4  0
  1 14  4  0
  1  2  1  0
  3  4  4  0
  4  5  4  0
  5  6  4  0
  5 22  1  0
  6  7  1  0
  6 14  4  0
  7  8  1  0
  8  9  4  0
  8 12  4  0
  9 10  4  0
 10 11  4  0
 11 12  4  0
 12 13  1  0
 13 14  1  0
 13 15  1  6
 15 16  4  0
 15 20  4  0
 16 17  4  0
 17 18  4  0
 17 21  1  0
 18 19  4  0
 19 20  4  0
 23 24  4  0
 24 25  1  0
 24 26  4  0
 26 27  4  0
 27 28  4  0
 28 29  1  0
  2 23  4  0
  2 28  4  0
M  END
$$$$

     RDKit          3D

 35 40  0  0  0  0  0  0  0  0999 V2000
   -7.6410    4.9930    6.8080 C   0  0  0  0  0  0  0  0  0  1  0  0
   -7.7310    4.0530    5.7140 C   0  0  0  0  0  0  0  0  0  2  0  0
   -6.4520    5.6300    6.8680 N   0  0  0  0  0  0  0  0  0  0  0  0
   -6.2260    6.5240    7.8670 N   0  0  0  0  0  0  0  0  0  0  0  0
   -7.1930    6.7500    8.7820 C   0  0  0  0  0  0  0  0  0  0  0  0
   -8.4240    6.1170    8.7580 C   0  0  0  0  0  0  0  0  0  0  0  0
   -9.3950    6.3570    9.7450 N   0  0  0  0  0  0  0  0  0  0  0  0
  -10.5620    5.6840    9.7600 C   0  0  0  0  0  0  0  0  0  0  0  0
  -11.5770    5.6820   10.5960 N   0  0  0  0  0  0  0  0  0  0  0  0
  -12.4690    4.7490   10.1080 N   0  0  0  0  0  0  0  0  0  0  0  0
  -12.0160    4.1880    8.9920 N   0  0  0  0  0  0  0  0  0  0  0  0
  -10.8400    4.7900    8.7610 N   0  0  0  0  0  0  0  0  0  0  0  0
   -9.9950    4.4790    7.6090 C   0  0  0  0  0  0  0  0  0  0  0  0
   -8.6630    5.2070    7.7200 C   0  0  0  0  0  0  0  0  0  0  0  0
  -10.7490    4.8610    6.3730 C   0  0  0  0  0  0  0  0  0  0  0  0
  -11.0350    6.2020    6.1170 C   0  0  0  0  0  0  0  0  0  0  0  0
  -11.7370    6.5580    4.9650 C   0  0  0  0  0  0  0  0  0  0  0  0
  -12.1550    5.5730    4.0710 C   0  0  0  0  0  0  0  0  0  0  0  0
  -11.8700    4.2310    4.3270 C   0  0  0  0  0  0  0  0  0  0  0  0
  -11.1660    3.8760    5.4790 C   0  0  0  0  0  0  0  0  0  0  0  0
  -12.0160    7.8660    4.7150 O   0  0  0  0  0  0  0  0  0  0  0  0
   -6.8990    7.6510    9.7710 O   0  0  0  0  0  0  0  0  0  0  0  0
   -7.1479    2.7458    5.7731 C   0  0  0  0  0  0  0  0  0  0  0  0
   -6.3154    2.4214    6.9127 C   0  0  0  0  0  0  0  0  0  0  0  0
   -5.6504    2.1641    7.8242 N   0  0  0  0  0  0  0  0  0  0  0  0
   -7.3484    1.8008    4.7511 C   0  0  0  0  0  0  0  0  0  0  0  0
   -6.7282    0.5103    4.7865 N   0  0  0  0  0  0  0  0  0  0  0  0
   -8.1596    2.1048    3.7079 N   0  0  0  0  0  0  0  0  0  0  0  0
   -8.7874    3.3025    3.5813 C   0  0  0  0  0  0  0  0  0  0  0  0
   -8.6029    4.3003    4.5635 C   0  0  0  0  0  0  0  0  0  0  0  0
   -9.2866    5.6477    4.4048 C   0  0  0  0  0  0  0  0  0  0  0  0
  -10.8085    5.5248    4.5653 C   0  0  0  0  0  0  0  0  0  0  0  0
  -11.5079    5.0917    3.2687 C   0  0  0  0  0  0  0  0  0  0  0  0
  -11.1628    3.6605    2.8320 C   0  0  0  0  0  0  0  0  0  0  0  0
   -9.6977    3.5038    2.3977 C   0  0  0  0  0  0  0  0  0  0  0  0
  1  3  4  0
  1 14  4  0
  1  2  1  0
  3  4  4  0
  4  5  4  0
  5  6  4  0
  5 22  1  0
  6  7  1  0
  6 14  4  0
  7  8  1  0
  8  9  4  0
  8 12  4  0
  9 10  4  0
 10 11  4  0
 11 12  4  0
 12 13  1  0
 13 14  1  0
 13 15  1  6
 15 16  4  0
 15 20  4  0
 16 17  4  0
 17 18  4  0
 17 21  1  0
 18 19  4  0
 19 20  4  0
 23 24  1  0
 24 25  3  0
 23 26  4  0
 26 27  1  0
 26 28  4  0
 28 29  4  0
 29 30  4  0
 30 31  1  0
 31 32  1  0
 32 33  1  0
 33 34  1  0
 34 35  1  0
 35 29  1  0
  2 23  4  0
  2 30  4  0
M  END
$$$$

     RDKit          3D

 28 32  0  0  0  0  0  0  0  0999 V2000
   -7.6410    4.9930    6.8080 C   0  0  0  0  0  0  0  0  0  1  0  0
   -7.7310    4.0530    5.7140 C   0  0  0  0  0  0  0  0  0  2  0  0
   -6.4520    5.6300    6.8680 N   0  0  0  0  0  0  0  0  0  0  0  0
   -6.2260    6.5240    7.8670 N   0  0  0  0  0  0  0  0  0  0  0  0
   -7.1930    6.7500    8.7820 C   0  0  0  0  0  0  0  0  0  0  0  0
   -8.4240    6.1170    8.7580 C   0  0  0  0  0  0  0  0  0  0  0  0
   -9.3950    6.3570    9.7450 N   0  0  0  0  0  0  0  0  0  0  0  0
  -10.5620    5.6840    9.7600 C   0  0  0  0  0  0  0  0  0  0  0  0
  -11.5770    5.6820   10.5960 N   0  0  0  0  0  0  0  0  0  0  0  0
  -12.4690    4.7490   10.1080 N   0  0  0  0  0  0  0  0  0  0  0  0
  -12.0160    4.1880    8.9920 N   0  0  0  0  0  0  0  0  0  0  0  0
  -10.8400    4.7900    8.7610 N   0  0  0  0  0  0  0  0  0  0  0  0
   -9.9950    4.4790    7.6090 C   0  0  0  0  0  0  0  0  0  0  0  0
   -8.6630    5.2070    7.7200 C   0  0  0  0  0  0  0  0  0  0  0  0
  -10.7490    4.8610    6.3730 C   0  0  0  0  0  0  0  0  0  0  0  0
  -11.0350    6.2020    6.1170 C   0  0  0  0  0  0  0  0  0  0  0  0
  -11.7370    6.5580    4.9650 C   0  0  0  0  0  0  0  0  0  0  0  0
  -12.1550    5.5730    4.0710 C   0  0  0  0  0  0  0  0  0  0  0  0
  -11.8700    4.2310    4.3270 C   0  0  0  0  0  0  0  0  0  0  0  0
  -11.1660    3.8760    5.4790 C   0  0  0  0  0  0  0  0  0  0  0  0
  -12.0160    7.8660    4.7150 O   0  0  0  0  0  0  0  0  0  0  0  0
   -6.8990    7.6510    9.7710 O   0  0  0  0  0  0  0  0  0  0  0  0
   -6.8421    2.9941    5.4884 C   0  0  0  0  0  0  0  0  0  0  0  0
   -7.0254    2.0450    4.4789 C   0  0  0  0  0  0  0  0  0  0  0  0
   -8.1544    2.1066    3.6564 C   0  0  0  0  0  0  0  0  0  0  0  0
   -9.0941    3.1256    3.8344 C   0  0  0  0  0  0  0  0  0  0  0  0
   -8.9168    4.0768    4.8458 C   0  0  0  0  0  0  0  0  0  0  0  0
   -9.8037    5.0972    4.9540 F   0  0  0  0  0  0  0  0  0  0  0  0
  1  3  4  0
  1 14  4  0
  1  2  1  0
  3  4  4  0
  4  5  4  0
  5  6  4  0
  5 22  1  0
  6  7  1  0
  6 14  4  0
  7  8  1  0
  8  9  4  0
  8 12  4  0
  9 10  4  0
 10 11  4  0
 11 12  4  0
 12 13  1  0
 13 14  1  0
 13 15  1  6
 15 16  4  0
 15 20  4  0
 16 17  4  0
 17 18  4  0
 17 21  1  0
 18 19  4  0
 19 20  4  0
 23 24  4  0
 24 25  4  0
 25 26  4  0
 26 27  4  0
 27 28  1  0
  2 23  4  0
  2 27  4  0
M  END
$$$$

     RDKit          3D

 28 32  0  0  0  0  0  0  0  0999 V2000
   -7.6410    4.9930    6.8080 C   0  0  0  0  0  0  0  0  0  1  0  0
   -7.7310    4.0530    5.7140 C   0  0  0  0  0  0  0  0  0  2  0  0
   -6.4520    5.6300    6.8680 N   0  0  0  0  0  0  0  0  0  0  0  0
   -6.2260    6.5240    7.8670 N   0  0  0  0  0  0  0  0  0  0  0  0
   -7.1930    6.7500    8.7820 C   0  0  0  0  0  0  0  0  0  0  0  0
   -8.4240    6.1170    8.7580 C   0  0  0  0  0  0  0  0  0  0  0  0
   -9.3950    6.3570    9.7450 N   0  0  0  0  0  0  0  0  0  0  0  0
  -10.5620    5.6840    9.7600 C   0  0  0  0  0  0  0  0  0  0  0  0
  -11.5770    5.6820   10.5960 N   0  0  0  0  0  0  0  0  0  0  0  0
  -12.4690    4.7490   10.1080 N   0  0  0  0  0  0  0  0  0  0  0  0
  -12.0160    4.1880    8.9920 N   0  0  0  0  0  0  0  0  0  0  0  0
  -10.8400    4.7900    8.7610 N   0  0  0  0  0  0  0  0  0  0  0  0
   -9.9950    4.4790    7.6090 C   0  0  0  0  0  0  0  0  0  0  0  0
   -8.6630    5.2070    7.7200 C   0  0  0  0  0  0  0  0  0  0  0  0
  -10.7490    4.8610    6.3730 C   0  0  0  0  0  0  0  0  0  0  0  0
  -11.0350    6.2020    6.1170 C   0  0  0  0  0  0  0  0  0  0  0  0
  -11.7370    6.5580    4.9650 C   0  0  0  0  0  0  0  0  0  0  0  0
  -12.1550    5.5730    4.0710 C   0  0  0  0  0  0  0  0  0  0  0  0
  -11.8700    4.2310    4.3270 C   0  0  0  0  0  0  0  0  0  0  0  0
  -11.1660    3.8760    5.4790 C   0  0  0  0  0  0  0  0  0  0  0  0
  -12.0160    7.8660    4.7150 O   0  0  0  0  0  0  0  0  0  0  0  0
   -6.8990    7.6510    9.7710 O   0  0  0  0  0  0  0  0  0  0  0  0
   -6.9801    2.8641    5.6492 C   0  0  0  0  0  0  0  0  0  0  0  0
   -7.1587    1.9084    4.6453 C   0  0  0  0  0  0  0  0  0  0  0  0
   -8.1446    2.0906    3.6733 C   0  0  0  0  0  0  0  0  0  0  0  0
   -8.9477    3.2337    3.6972 C   0  0  0  0  0  0  0  0  0  0  0  0
   -8.7775    4.1970    4.6996 C   0  0  0  0  0  0  0  0  0  0  0  0
   -9.8513    5.7854    4.6258 Br  0  0  0  0  0  0  0  0  0  0  0  0
  1  3  4  0
  1 14  4  0
  1  2  1  0
  3  4  4  0
  4  5  4  0
  5  6  4  0
  5 22  1  0
  6  7  1  0
  6 14  4  0
  7  8  1  0
  8  9  4  0
  8 12  4  0
  9 10  4  0
 10 11  4  0
 11 12  4  0
 12 13  1  0
 13 14  1  0
 13 15  1  6
 15 16  4  0
 15 20  4  0
 16 17  4  0
 17 18  4  0
 17 21  1  0
 18 19  4  0
 19 20  4  0
 23 24  4  0
 24 25  4  0
 25 26  4  0
 26 27  4  0
 27 28  1  0
  2 23  4  0
  2 27  4  0
M  END
$$$$

     RDKit          3D

 27 31  0  0  0  0  0  0  0  0999 V2000
   -7.6410    4.9930    6.8080 C   0  0  0  0  0  0  0  0  0  1  0  0
   -7.7310    4.0530    5.7140 C   0  0  0  0  0  0  0  0  0  2  0  0
   -6.4520    5.6300    6.8680 N   0  0  0  0  0  0  0  0  0  0  0  0
   -6.2260    6.5240    7.8670 N   0  0  0  0  0  0  0  0  0  0  0  0
   -7.1930    6.7500    8.7820 C   0  0  0  0  0  0  0  0  0  0  0  0
   -8.4240    6.1170    8.7580 C   0  0  0  0  0  0  0  0  0  0  0  0
   -9.3950    6.3570    9.7450 N   0  0  0  0  0  0  0  0  0  0  0  0
  -10.5620    5.6840    9.7600 C   0  0  0  0  0  0  0  0  0  0  0  0
  -11.5770    5.6820   10.5960 N   0  0  0  0  0  0  0  0  0  0  0  0
  -12.4690    4.7490   10.1080 N   0  0  0  0  0  0  0  0  0  0  0  0
  -12.0160    4.1880    8.9920 N   0  0  0  0  0  0  0  0  0  0  0  0
  -10.8400    4.7900    8.7610 N   0  0  0  0  0  0  0  0  0  0  0  0
   -9.9950    4.4790    7.6090 C   0  0  0  0  0  0  0  0  0  0  0  0
   -8.6630    5.2070    7.7200 C   0  0  0  0  0  0  0  0  0  0  0  0
  -10.7490    4.8610    6.3730 C   0  0  0  0  0  0  0  0  0  0  0  0
  -11.0350    6.2020    6.1170 C   0  0  0  0  0  0  0  0  0  0  0  0
  -11.7370    6.5580    4.9650 C   0  0  0  0  0  0  0  0  0  0  0  0
  -12.1550    5.5730    4.0710 C   0  0  0  0  0  0  0  0  0  0  0  0
  -11.8700    4.2310    4.3270 C   0  0  0  0  0  0  0  0  0  0  0  0
  -11.1660    3.8760    5.4790 C   0  0  0  0  0  0  0  0  0  0  0  0
  -12.0160    7.8660    4.7150 O   0  0  0  0  0  0  0  0  0  0  0  0
   -6.8990    7.6510    9.7710 O   0  0  0  0  0  0  0  0  0  0  0  0
   -6.7595    3.1929    5.2378 C   0  0  0  0  0  0  0  0  0  0  0  0
   -7.2941    2.4424    4.2101 C   0  0  0  0  0  0  0  0  0  0  0  0
   -8.6059    2.8452    4.0661 C   0  0  0  0  0  0  0  0  0  0  0  0
   -8.8923    3.8135    4.9586 N   0  0  0  0  0  0  0  0  0  0  0  0
  -10.1755    4.5067    5.0529 C   0  0  0  0  0  0  0  0  0  0  0  0
  1  3  4  0
  1 14  4  0
  1  2  1  0
  3  4  4  0
  4  5  4  0
  5  6  4  0
  5 22  1  0
  6  7  1  0
  6 14  4  0
  7  8  1  0
  8  9  4  0
  8 12  4  0
  9 10  4  0
 10 11  4  0
 11 12  4  0
 12 13  1  0
 13 14  1  0
 13 15  1  6
 15 16  4  0
 15 20  4  0
 16 17  4  0
 17 18  4  0
 17 21  1  0
 18 19  4  0
 19 20  4  0
 23 24  4  0
 24 25  4  0
 25 26  4  0
 26 27  1  0
  2 23  4  0
  2 26  4  0
M  END
$$$$

     RDKit          3D

 27 31  0  0  0  0  0  0  0  0999 V2000
   -7.6410    4.9930    6.8080 C   0  0  0  0  0  0  0  0  0  1  0  0
   -7.7310    4.0530    5.7140 C   0  0  0  0  0  0  0  0  0  2  0  0
   -6.4520    5.6300    6.8680 N   0  0  0  0  0  0  0  0  0  0  0  0
   -6.2260    6.5240    7.8670 N   0  0  0  0  0  0  0  0  0  0  0  0
   -7.1930    6.7500    8.7820 C   0  0  0  0  0  0  0  0  0  0  0  0
   -8.4240    6.1170    8.7580 C   0  0  0  0  0  0  0  0  0  0  0  0
   -9.3950    6.3570    9.7450 N   0  0  0  0  0  0  0  0  0  0  0  0
  -10.5620    5.6840    9.7600 C   0  0  0  0  0  0  0  0  0  0  0  0
  -11.5770    5.6820   10.5960 N   0  0  0  0  0  0  0  0  0  0  0  0
  -12.4690    4.7490   10.1080 N   0  0  0  0  0  0  0  0  0  0  0  0
  -12.0160    4.1880    8.9920 N   0  0  0  0  0  0  0  0  0  0  0  0
  -10.8400    4.7900    8.7610 N   0  0  0  0  0  0  0  0  0  0  0  0
   -9.9950    4.4790    7.6090 C   0  0  0  0  0  0  0  0  0  0  0  0
   -8.6630    5.2070    7.7200 C   0  0  0  0  0  0  0  0  0  0  0  0
  -10.7490    4.8610    6.3730 C   0  0  0  0  0  0  0  0  0  0  0  0
  -11.0350    6.2020    6.1170 C   0  0  0  0  0  0  0  0  0  0  0  0
  -11.7370    6.5580    4.9650 C   0  0  0  0  0  0  0  0  0  0  0  0
  -12.1550    5.5730    4.0710 C   0  0  0  0  0  0  0  0  0  0  0  0
  -11.8700    4.2310    4.3270 C   0  0  0  0  0  0  0  0  0  0  0  0
  -11.1660    3.8760    5.4790 C   0  0  0  0  0  0  0  0  0  0  0  0
  -12.0160    7.8660    4.7150 O   0  0  0  0  0  0  0  0  0  0  0  0
   -6.8990    7.6510    9.7710 O   0  0  0  0  0  0  0  0  0  0  0  0
   -6.7649    3.2716    5.1961 N   0  0  0  0  0  0  0  0  0  0  0  0
   -7.2935    2.5458    4.2203 N   0  0  0  0  0  0  0  0  0  0  0  0
   -8.5836    2.8191    4.1008 N   0  0  0  0  0  0  0  0  0  0  0  0
   -8.9101    3.7324    4.9979 N   0  0  0  0  0  0  0  0  0  0  0  0
  -10.2394    4.3221    5.1129 C   0  0  0  0  0  0  0  0  0  0  0  0
  1  3  4  0
  1 14  4  0
  1  2  1  0
  3  4  4  0
  4  5  4  0
  5  6  4  0
  5 22  1  0
  6  7  1  0
  6 14  4  0
  7  8  1  0
  8  9  4  0
  8 12  4  0
  9 10  4  0
 10 11  4  0
 11 12  4  0
 12 13  1  0
 13 14  1  0
 13 15  1  6
 15 16  4  0
 15 20  4  0
 16 17  4  0
 17 18  4  0
 17 21  1  0
 18 19  4  0
 19 20  4  0
 23 24  4  0
 24 25  4  0
 25 26  4  0
 26 27  1  0
  2 23  4  0
  2 26  4  0
M  END
$$$$

     RDKit          3D

 29 33  0  0  0  0  0  0  0  0999 V2000
   -7.6410    4.9930    6.8080 C   0  0  0  0  0  0  0  0  0  1  0  0
   -7.7310    4.0530    5.7140 C   0  0  0  0  0  0  0  0  0  2  0  0
   -6.4520    5.6300    6.8680 N   0  0  0  0  0  0  0  0  0  0  0  0
   -6.2260    6.5240    7.8670 N   0  0  0  0  0  0  0  0  0  0  0  0
   -7.1930    6.7500    8.7820 C   0  0  0  0  0  0  0  0  0  0  0  0
   -8.4240    6.1170    8.7580 C   0  0  0  0  0  0  0  0  0  0  0  0
   -9.3950    6.3570    9.7450 N   0  0  0  0  0  0  0  0  0  0  0  0
  -10.5620    5.6840    9.7600 C   0  0  0  0  0  0  0  0  0  0  0  0
  -11.5770    5.6820   10.5960 N   0  0  0  0  0  0  0  0  0  0  0  0
  -12.4690    4.7490   10.1080 N   0  0  0  0  0  0  0  0  0  0  0  0
  -12.0160    4.1880    8.9920 N   0  0  0  0  0  0  0  0  0  0  0  0
  -10.8400    4.7900    8.7610 N   0  0  0  0  0  0  0  0  0  0  0  0
   -9.9950    4.4790    7.6090 C   0  0  0  0  0  0  0  0  0  0  0  0
   -8.6630    5.2070    7.7200 C   0  0  0  0  0  0  0  0  0  0  0  0
  -10.7490    4.8610    6.3730 C   0  0  0  0  0  0  0  0  0  0  0  0
  -11.0350    6.2020    6.1170 C   0  0  0  0  0  0  0  0  0  0  0  0
  -11.7370    6.5580    4.9650 C   0  0  0  0  0  0  0  0  0  0  0  0
  -12.1550    5.5730    4.0710 C   0  0  0  0  0  0  0  0  0  0  0  0
  -11.8700    4.2310    4.3270 C   0  0  0  0  0  0  0  0  0  0  0  0
  -11.1660    3.8760    5.4790 C   0  0  0  0  0  0  0  0  0  0  0  0
  -12.0160    7.8660    4.7150 O   0  0  0  0  0  0  0  0  0  0  0  0
   -6.8990    7.6510    9.7710 O   0  0  0  0  0  0  0  0  0  0  0  0
   -6.8795    2.9526    5.5428 C   0  0  0  0  0  0  0  0  0  0  0  0
   -7.0559    1.9971    4.5368 C   0  0  0  0  0  0  0  0  0  0  0  0
   -5.9113    0.6784    4.3683 Cl  0  0  0  0  0  0  0  0  0  0  0  0
   -8.1448    2.0926    3.6663 C   0  0  0  0  0  0  0  0  0  0  0  0
   -9.0517    3.1474    3.7930 C   0  0  0  0  0  0  0  0  0  0  0  0
   -8.8834    4.1088    4.7971 C   0  0  0  0  0  0  0  0  0  0  0  0
  -10.0038    5.4665    4.8525 Cl  0  0  0  0  0  0  0  0  0  0  0  0
  1  3  4  0
  1 14  4  0
  1  2  1  0
  3  4  4  0
  4  5  4  0
  5  6  4  0
  5 22  1  0
  6  7  1  0
  6 14  4  0
  7  8  1  0
  8  9  4  0
  8 12  4  0
  9 10  4  0
 10 11  4  0
 11 12  4  0
 12 13  1  0
 13 14  1  0
 13 15  1  6
 15 16  4  0
 15 20  4  0
 16 17  4  0
 17 18  4  0
 17 21  1  0
 18 19  4  0
 19 20  4  0
 23 24  4  0
 24 25  1  0
 24 26  4  0
 26 27  4  0
 27 28  4  0
 28 29  1  0
  2 23  4  0
  2 28  4  0
M  END
$$$$

     RDKit          3D

 29 33  0  0  0  0  0  0  0  0999 V2000
   -7.6410    4.9930    6.8080 C   0  0  0  0  0  0  0  0  0  1  0  0
   -7.7310    4.0530    5.7140 C   0  0  0  0  0  0  0  0  0  2  0  0
   -6.4520    5.6300    6.8680 N   0  0  0  0  0  0  0  0  0  0  0  0
   -6.2260    6.5240    7.8670 N   0  0  0  0  0  0  0  0  0  0  0  0
   -7.1930    6.7500    8.7820 C   0  0  0  0  0  0  0  0  0  0  0  0
   -8.4240    6.1170    8.7580 C   0  0  0  0  0  0  0  0  0  0  0  0
   -9.3950    6.3570    9.7450 N   0  0  0  0  0  0  0  0  0  0  0  0
  -10.5620    5.6840    9.7600 C   0  0  0  0  0  0  0  0  0  0  0  0
  -11.5770    5.6820   10.5960 N   0  0  0  0  0  0  0  0  0  0  0  0
  -12.4690    4.7490   10.1080 N   0  0  0  0  0  0  0  0  0  0  0  0
  -12.0160    4.1880    8.9920 N   0  0  0  0  0  0  0  0  0  0  0  0
  -10.8400    4.7900    8.7610 N   0  0  0  0  0  0  0  0  0  0  0  0
   -9.9950    4.4790    7.6090 C   0  0  0  0  0  0  0  0  0  0  0  0
   -8.6630    5.2070    7.7200 C   0  0  0  0  0  0  0  0  0  0  0  0
  -10.7490    4.8610    6.3730 C   0  0  0  0  0  0  0  0  0  0  0  0
  -11.0350    6.2020    6.1170 C   0  0  0  0  0  0  0  0  0  0  0  0
  -11.7370    6.5580    4.9650 C   0  0  0  0  0  0  0  0  0  0  0  0
  -12.1550    5.5730    4.0710 C   0  0  0  0  0  0  0  0  0  0  0  0
  -11.8700    4.2310    4.3270 C   0  0  0  0  0  0  0  0  0  0  0  0
  -11.1660    3.8760    5.4790 C   0  0  0  0  0  0  0  0  0  0  0  0
  -12.0160    7.8660    4.7150 O   0  0  0  0  0  0  0  0  0  0  0  0
   -6.8990    7.6510    9.7710 O   0  0  0  0  0  0  0  0  0  0  0  0
   -7.0438    2.8217    5.6953 C   0  0  0  0  0  0  0  0  0  0  0  0
   -7.2384    1.8604    4.7002 C   0  0  0  0  0  0  0  0  0  0  0  0
   -8.1768    2.0802    3.6890 C   0  0  0  0  0  0  0  0  0  0  0  0
   -8.4168    0.8738    2.4365 Cl  0  0  0  0  0  0  0  0  0  0  0  0
   -8.9205    3.2645    3.6732 C   0  0  0  0  0  0  0  0  0  0  0  0
   -8.7327    4.2321    4.6683 C   0  0  0  0  0  0  0  0  0  0  0  0
   -9.6397    5.7387    4.5643 Cl  0  0  0  0  0  0  0  0  0  0  0  0
  1  3  4  0
  1 14  4  0
  1  2  1  0
  3  4  4  0
  4  5  4  0
  5  6  4  0
  5 22  1  0
  6  7  1  0
  6 14  4  0
  7  8  1  0
  8  9  4  0
  8 12  4  0
  9 10  4  0
 10 11  4  0
 11 12  4  0
 12 13  1  0
 13 14  1  0
 13 15  1  6
 15 16  4  0
 15 20  4  0
 16 17  4  0
 17 18  4  0
 17 21  1  0
 18 19  4  0
 19 20  4  0
 23 24  4  0
 24 25  4  0
 25 26  1  0
 25 27  4  0
 27 28  4  0
 28 29  1  0
  2 23  4  0
  2 28  4  0
M  END
$$$$

     RDKit          3D

 40 45  0  0  0  0  0  0  0  0999 V2000
   -7.6410    4.9930    6.8080 C   0  0  0  0  0  0  0  0  0  1  0  0
   -7.7310    4.0530    5.7140 C   0  0  0  0  0  0  0  0  0  2  0  0
   -6.4520    5.6300    6.8680 N   0  0  0  0  0  0  0  0  0  0  0  0
   -6.2260    6.5240    7.8670 N   0  0  0  0  0  0  0  0  0  0  0  0
   -7.1930    6.7500    8.7820 C   0  0  0  0  0  0  0  0  0  0  0  0
   -8.4240    6.1170    8.7580 C   0  0  0  0  0  0  0  0  0  0  0  0
   -9.3950    6.3570    9.7450 N   0  0  0  0  0  0  0  0  0  0  0  0
  -10.5620    5.6840    9.7600 C   0  0  0  0  0  0  0  0  0  0  0  0
  -11.5770    5.6820   10.5960 N   0  0  0  0  0  0  0  0  0  0  0  0
  -12.4690    4.7490   10.1080 N   0  0  0  0  0  0  0  0  0  0  0  0
  -12.0160    4.1880    8.9920 N   0  0  0  0  0  0  0  0  0  0  0  0
  -10.8400    4.7900    8.7610 N   0  0  0  0  0  0  0  0  0  0  0  0
   -9.9950    4.4790    7.6090 C   0  0  0  0  0  0  0  0  0  0  0  0
   -8.6630    5.2070    7.7200 C   0  0  0  0  0  0  0  0  0  0  0  0
  -10.7490    4.8610    6.3730 C   0  0  0  0  0  0  0  0  0  0  0  0
  -11.0350    6.2020    6.1170 C   0  0  0  0  0  0  0  0  0  0  0  0
  -11.7370    6.5580    4.9650 C   0  0  0  0  0  0  0  0  0  0  0  0
  -12.1550    5.5730    4.0710 C   0  0  0  0  0  0  0  0  0  0  0  0
  -11.8700    4.2310    4.3270 C   0  0  0  0  0  0  0  0  0  0  0  0
  -11.1660    3.8760    5.4790 C   0  0  0  0  0  0  0  0  0  0  0  0
  -12.0160    7.8660    4.7150 O   0  0  0  0  0  0  0  0  0  0  0  0
   -6.8990    7.6510    9.7710 O   0  0  0  0  0  0  0  0  0  0  0  0
   -6.9005    2.9761    5.5877 N   0  0  0  0  0  0  0  0  0  0  0  0
   -6.9864    2.0912    4.5940 N   0  0  0  0  0  0  0  0  0  0  0  0
   -7.9500    2.2042    3.6446 C   0  0  0  0  0  0  0  0  0  0  0  0
   -8.0517    1.0067    2.3199 S   0  0  0  0  0  0  0  0  0  0  0  0
   -6.9421    1.9506    1.2248 C   0  0  0  0  0  0  0  0  0  0  0  0
   -6.7967    1.2404   -0.0839 C   0  0  0  0  0  0  0  0  0  0  0  0
   -5.6811    0.7426   -0.3955 O   0  0  0  0  0  0  0  0  0  0  0  0
   -7.9293    1.1065   -0.9580 N   0  0  0  0  0  0  0  0  0  0  0  0
   -7.8586    0.5892   -2.2977 C   0  0  0  0  0  0  0  0  0  0  0  0
   -6.7571    0.8564   -3.1318 C   0  0  0  0  0  0  0  0  0  0  0  0
   -6.7256    0.3608   -4.4392 C   0  0  0  0  0  0  0  0  0  0  0  0
   -7.7962   -0.3928   -4.9304 C   0  0  0  0  0  0  0  0  0  0  0  0
   -7.7552   -1.0115   -6.5712 Cl  0  0  0  0  0  0  0  0  0  0  0  0
   -8.9042   -0.6428   -4.1152 C   0  0  0  0  0  0  0  0  0  0  0  0
   -8.9388   -0.1476   -2.8081 C   0  0  0  0  0  0  0  0  0  0  0  0
   -8.8315    3.2338    3.7015 N   0  0  0  0  0  0  0  0  0  0  0  0
   -8.7621    4.1476    4.7016 C   0  0  0  0  0  0  0  0  0  0  0  0
   -9.6569    5.2113    4.7239 O   0  0  0  0  0  0  0  0  0  0  0  0
  1  3  4  0
  1 14  4  0
  1  2  1  0
  3  4  4  0
  4  5  4  0
  5  6  4  0
  5 22  1  0
  6  7  1  0
  6 14  4  0
  7  8  1  0
  8  9  4  0
  8 12  4  0
  9 10  4  0
 10 11  4  0
 11 12  4  0
 12 13  1  0
 13 14  1  0
 13 15  1  6
 15 16  4  0
 15 20  4  0
 16 17  4  0
 17 18  4  0
 17 21  1  0
 18 19  4  0
 19 20  4  0
 23 24  4  0
 24 25  4  0
 25 26  1  0
 26 27  1  0
 27 28  1  0
 28 29  2  0
 28 30  1  0
 30 31  1  0
 31 32  4  0
 32 33  4  0
 33 34  4  0
 34 35  1  0
 34 36  4  0
 36 37  4  0
 25 38  4  0
 38 39  4  0
 39 40  1  0
 37 31  4  0
  2 23  4  0
  2 39  4  0
M  CHG  1  40  -1
M  END
$$$$

     RDKit          3D

 40 45  0  0  0  0  0  0  0  0999 V2000
   -7.6410    4.9930    6.8080 C   0  0  0  0  0  0  0  0  0  1  0  0
   -7.7310    4.0530    5.7140 C   0  0  0  0  0  0  0  0  0  2  0  0
   -6.4520    5.6300    6.8680 N   0  0  0  0  0  0  0  0  0  0  0  0
   -6.2260    6.5240    7.8670 N   0  0  0  0  0  0  0  0  0  0  0  0
   -7.1930    6.7500    8.7820 C   0  0  0  0  0  0  0  0  0  0  0  0
   -8.4240    6.1170    8.7580 C   0  0  0  0  0  0  0  0  0  0  0  0
   -9.3950    6.3570    9.7450 N   0  0  0  0  0  0  0  0  0  0  0  0
  -10.5620    5.6840    9.7600 C   0  0  0  0  0  0  0  0  0  0  0  0
  -11.5770    5.6820   10.5960 N   0  0  0  0  0  0  0  0  0  0  0  0
  -12.4690    4.7490   10.1080 N   0  0  0  0  0  0  0  0  0  0  0  0
  -12.0160    4.1880    8.9920 N   0  0  0  0  0  0  0  0  0  0  0  0
  -10.8400    4.7900    8.7610 N   0  0  0  0  0  0  0  0  0  0  0  0
   -9.9950    4.4790    7.6090 C   0  0  0  0  0  0  0  0  0  0  0  0
   -8.6630    5.2070    7.7200 C   0  0  0  0  0  0  0  0  0  0  0  0
  -10.7490    4.8610    6.3730 C   0  0  0  0  0  0  0  0  0  0  0  0
  -11.0350    6.2020    6.1170 C   0  0  0  0  0  0  0  0  0  0  0  0
  -11.7370    6.5580    4.9650 C   0  0  0  0  0  0  0  0  0  0  0  0
  -12.1550    5.5730    4.0710 C   0  0  0  0  0  0  0  0  0  0  0  0
  -11.8700    4.2310    4.3270 C   0  0  0  0  0  0  0  0  0  0  0  0
  -11.1660    3.8760    5.4790 C   0  0  0  0  0  0  0  0  0  0  0  0
  -12.0160    7.8660    4.7150 O   0  0  0  0  0  0  0  0  0  0  0  0
   -6.8990    7.6510    9.7710 O   0  0  0  0  0  0  0  0  0  0  0  0
   -6.8420    3.0357    5.5316 N   0  0  0  0  0  0  0  0  0  0  0  0
   -6.9144    2.1599    4.5290 N   0  0  0  0  0  0  0  0  0  0  0  0
   -7.9261    2.2174    3.6265 C   0  0  0  0  0  0  0  0  0  0  0  0
   -8.0056    1.0238    2.2954 S   0  0  0  0  0  0  0  0  0  0  0  0
   -7.1872    2.1223    1.0961 C   0  0  0  0  0  0  0  0  0  0  0  0
   -6.9826    1.3950   -0.1949 C   0  0  0  0  0  0  0  0  0  0  0  0
   -5.8123    1.2257   -0.6278 O   0  0  0  0  0  0  0  0  0  0  0  0
   -8.1195    0.9282   -0.9430 N   0  0  0  0  0  0  0  0  0  0  0  0
   -8.0477    0.0447   -2.0771 C   0  0  0  0  0  0  0  0  0  0  0  0
   -9.0455    0.1150   -3.0634 C   0  0  0  0  0  0  0  0  0  0  0  0
   -9.0153   -0.7440   -4.1648 C   0  0  0  0  0  0  0  0  0  0  0  0
   -7.9977   -1.6955   -4.2853 C   0  0  0  0  0  0  0  0  0  0  0  0
   -7.9640   -2.7765   -5.6655 Cl  0  0  0  0  0  0  0  0  0  0  0  0
   -7.0123   -1.7895   -3.2998 C   0  0  0  0  0  0  0  0  0  0  0  0
   -7.0390   -0.9312   -2.1960 C   0  0  0  0  0  0  0  0  0  0  0  0
   -8.8689    3.1862    3.7357 N   0  0  0  0  0  0  0  0  0  0  0  0
   -8.8093    4.0961    4.7408 C   0  0  0  0  0  0  0  0  0  0  0  0
   -9.7613    5.1091    4.8045 O   0  0  0  0  0  0  0  0  0  0  0  0
  1  3  4  0
  1 14  4  0
  1  2  1  0
  3  4  4  0
  4  5  4  0
  5  6  4  0
  5 22  1  0
  6  7  1  0
  6 14  4  0
  7  8  1  0
  8  9  4  0
  8 12  4  0
  9 10  4  0
 10 11  4  0
 11 12  4  0
 12 13  1  0
 13 14  1  0
 13 15  1  6
 15 16  4  0
 15 20  4  0
 16 17  4  0
 17 18  4  0
 17 21  1  0
 18 19  4  0
 19 20  4  0
 23 24  4  0
 24 25  4  0
 25 26  1  0
 26 27  1  0
 27 28  1  0
 28 29  2  0
 28 30  1  0
 30 31  1  0
 31 32  4  0
 32 33  4  0
 33 34  4  0
 34 35  1  0
 34 36  4  0
 36 37  4  0
 25 38  4  0
 38 39  4  0
 39 40  1  0
 37 31  4  0
  2 23  4  0
  2 39  4  0
M  CHG  1  40  -1
M  END
$$$$

     RDKit          3D

 40 45  0  0  0  0  0  0  0  0999 V2000
   -7.6410    4.9930    6.8080 C   0  0  0  0  0  0  0  0  0  1  0  0
   -7.7310    4.0530    5.7140 C   0  0  0  0  0  0  0  0  0  2  0  0
   -6.4520    5.6300    6.8680 N   0  0  0  0  0  0  0  0  0  0  0  0
   -6.2260    6.5240    7.8670 N   0  0  0  0  0  0  0  0  0  0  0  0
   -7.1930    6.7500    8.7820 C   0  0  0  0  0  0  0  0  0  0  0  0
   -8.4240    6.1170    8.7580 C   0  0  0  0  0  0  0  0  0  0  0  0
   -9.3950    6.3570    9.7450 N   0  0  0  0  0  0  0  0  0  0  0  0
  -10.5620    5.6840    9.7600 C   0  0  0  0  0  0  0  0  0  0  0  0
  -11.5770    5.6820   10.5960 N   0  0  0  0  0  0  0  0  0  0  0  0
  -12.4690    4.7490   10.1080 N   0  0  0  0  0  0  0  0  0  0  0  0
  -12.0160    4.1880    8.9920 N   0  0  0  0  0  0  0  0  0  0  0  0
  -10.8400    4.7900    8.7610 N   0  0  0  0  0  0  0  0  0  0  0  0
   -9.9950    4.4790    7.6090 C   0  0  0  0  0  0  0  0  0  0  0  0
   -8.6630    5.2070    7.7200 C   0  0  0  0  0  0  0  0  0  0  0  0
  -10.7490    4.8610    6.3730 C   0  0  0  0  0  0  0  0  0  0  0  0
  -11.0350    6.2020    6.1170 C   0  0  0  0  0  0  0  0  0  0  0  0
  -11.7370    6.5580    4.9650 C   0  0  0  0  0  0  0  0  0  0  0  0
  -12.1550    5.5730    4.0710 C   0  0  0  0  0  0  0  0  0  0  0  0
  -11.8700    4.2310    4.3270 C   0  0  0  0  0  0  0  0  0  0  0  0
  -11.1660    3.8760    5.4790 C   0  0  0  0  0  0  0  0  0  0  0  0
  -12.0160    7.8660    4.7150 O   0  0  0  0  0  0  0  0  0  0  0  0
   -6.8990    7.6510    9.7710 O   0  0  0  0  0  0  0  0  0  0  0  0
   -6.9016    2.9753    5.5886 N   0  0  0  0  0  0  0  0  0  0  0  0
   -6.9869    2.0909    4.5944 N   0  0  0  0  0  0  0  0  0  0  0  0
   -7.9476    2.2064    3.6422 C   0  0  0  0  0  0  0  0  0  0  0  0
   -8.0518    1.0020    2.3204 S   0  0  0  0  0  0  0  0  0  0  0  0
   -6.8648    1.8548    1.2231 C   0  0  0  0  0  0  0  0  0  0  0  0
   -7.5811    2.8131    0.3121 C   0  0  0  0  0  0  0  0  0  0  0  0
   -8.2615    3.7470    0.8135 O   0  0  0  0  0  0  0  0  0  0  0  0
   -7.5506    2.6643   -1.1156 N   0  0  0  0  0  0  0  0  0  0  0  0
   -6.4305    2.1521   -1.8563 C   0  0  0  0  0  0  0  0  0  0  0  0
   -5.1084    2.3735   -1.4288 C   0  0  0  0  0  0  0  0  0  0  0  0
   -4.0336    1.8900   -2.1812 C   0  0  0  0  0  0  0  0  0  0  0  0
   -4.2671    1.1961   -3.3727 C   0  0  0  0  0  0  0  0  0  0  0  0
   -2.9174    0.5920   -4.3162 Cl  0  0  0  0  0  0  0  0  0  0  0  0
   -5.5778    0.9933   -3.8159 C   0  0  0  0  0  0  0  0  0  0  0  0
   -6.6543    1.4760   -3.0652 C   0  0  0  0  0  0  0  0  0  0  0  0
   -8.8307    3.2344    3.7012 N   0  0  0  0  0  0  0  0  0  0  0  0
   -8.7617    4.1479    4.7014 C   0  0  0  0  0  0  0  0  0  0  0  0
   -9.6567    5.2114    4.7237 O   0  0  0  0  0  0  0  0  0  0  0  0
  1  3  4  0
  1 14  4  0
  1  2  1  0
  3  4  4  0
  4  5  4  0
  5  6  4  0
  5 22  1  0
  6  7  1  0
  6 14  4  0
  7  8  1  0
  8  9  4  0
  8 12  4  0
  9 10  4  0
 10 11  4  0
 11 12  4  0
 12 13  1  0
 13 14  1  0
 13 15  1  6
 15 16  4  0
 15 20  4  0
 16 17  4  0
 17 18  4  0
 17 21  1  0
 18 19  4  0
 19 20  4  0
 23 24  4  0
 24 25  4  0
 25 26  1  0
 26 27  1  0
 27 28  1  0
 28 29  2  0
 28 30  1  0
 30 31  1  0
 31 32  4  0
 32 33  4  0
 33 34  4  0
 34 35  1  0
 34 36  4  0
 36 37  4  0
 25 38  4  0
 38 39  4  0
 39 40  1  0
 37 31  4  0
  2 23  4  0
  2 39  4  0
M  CHG  1  40  -1
M  END
$$$$

     RDKit          3D

 30 34  0  0  0  0  0  0  0  0999 V2000
   -7.6410    4.9930    6.8080 C   0  0  0  0  0  0  0  0  0  1  0  0
   -7.7310    4.0530    5.7140 C   0  0  0  0  0  0  0  0  0  2  0  0
   -6.4520    5.6300    6.8680 N   0  0  0  0  0  0  0  0  0  0  0  0
   -6.2260    6.5240    7.8670 N   0  0  0  0  0  0  0  0  0  0  0  0
   -7.1930    6.7500    8.7820 C   0  0  0  0  0  0  0  0  0  0  0  0
   -8.4240    6.1170    8.7580 C   0  0  0  0  0  0  0  0  0  0  0  0
   -9.3950    6.3570    9.7450 N   0  0  0  0  0  0  0  0  0  0  0  0
  -10.5620    5.6840    9.7600 C   0  0  0  0  0  0  0  0  0  0  0  0
  -11.5770    5.6820   10.5960 N   0  0  0  0  0  0  0  0  0  0  0  0
  -12.4690    4.7490   10.1080 N   0  0  0  0  0  0  0  0  0  0  0  0
  -12.0160    4.1880    8.9920 N   0  0  0  0  0  0  0  0  0  0  0  0
  -10.8400    4.7900    8.7610 N   0  0  0  0  0  0  0  0  0  0  0  0
   -9.9950    4.4790    7.6090 C   0  0  0  0  0  0  0  0  0  0  0  0
   -8.6630    5.2070    7.7200 C   0  0  0  0  0  0  0  0  0  0  0  0
  -10.7490    4.8610    6.3730 C   0  0  0  0  0  0  0  0  0  0  0  0
  -11.0350    6.2020    6.1170 C   0  0  0  0  0  0  0  0  0  0  0  0
  -11.7370    6.5580    4.9650 C   0  0  0  0  0  0  0  0  0  0  0  0
  -12.1550    5.5730    4.0710 C   0  0  0  0  0  0  0  0  0  0  0  0
  -11.8700    4.2310    4.3270 C   0  0  0  0  0  0  0  0  0  0  0  0
  -11.1660    3.8760    5.4790 C   0  0  0  0  0  0  0  0  0  0  0  0
  -12.0160    7.8660    4.7150 O   0  0  0  0  0  0  0  0  0  0  0  0
   -6.8990    7.6510    9.7710 O   0  0  0  0  0  0  0  0  0  0  0  0
   -6.7769    3.0599    5.4226 C   0  0  0  0  0  0  0  0  0  0  0  0
   -6.9250    2.1167    4.3938 C   0  0  0  0  0  0  0  0  0  0  0  0
   -5.8212    1.1337    4.1006 C   0  0  0  0  0  0  0  0  0  0  0  0
   -4.8621    1.7018    3.1545 N   0  0  0  0  0  0  0  0  0  0  0  0
   -8.0834    2.1341    3.6039 C   0  0  0  0  0  0  0  0  0  0  0  0
   -9.0909    3.0675    3.8540 C   0  0  0  0  0  0  0  0  0  0  0  0
   -8.9509    3.9971    4.8883 C   0  0  0  0  0  0  0  0  0  0  0  0
   -9.9303    4.9169    5.0815 F   0  0  0  0  0  0  0  0  0  0  0  0
  1  3  4  0
  1 14  4  0
  1  2  1  0
  3  4  4  0
  4  5  4  0
  5  6  4  0
  5 22  1  0
  6  7  1  0
  6 14  4  0
  7  8  1  0
  8  9  4  0
  8 12  4  0
  9 10  4  0
 10 11  4  0
 11 12  4  0
 12 13  1  0
 13 14  1  0
 13 15  1  6
 15 16  4  0
 15 20  4  0
 16 17  4  0
 17 18  4  0
 17 21  1  0
 18 19  4  0
 19 20  4  0
 23 24  4  0
 24 25  1  0
 25 26  1  0
 24 27  4  0
 27 28  4  0
 28 29  4  0
 29 30  1  0
  2 23  4  0
  2 29  4  0
M  CHG  1  26   1
M  END
$$$$

     RDKit          3D

 32 37  0  0  0  0  0  0  0  0999 V2000
   -7.6410    4.9930    6.8080 C   0  0  0  0  0  0  0  0  0  1  0  0
   -7.7310    4.0530    5.7140 C   0  0  0  0  0  0  0  0  0  2  0  0
   -6.4520    5.6300    6.8680 N   0  0  0  0  0  0  0  0  0  0  0  0
   -6.2260    6.5240    7.8670 N   0  0  0  0  0  0  0  0  0  0  0  0
   -7.1930    6.7500    8.7820 C   0  0  0  0  0  0  0  0  0  0  0  0
   -8.4240    6.1170    8.7580 C   0  0  0  0  0  0  0  0  0  0  0  0
   -9.3950    6.3570    9.7450 N   0  0  0  0  0  0  0  0  0  0  0  0
  -10.5620    5.6840    9.7600 C   0  0  0  0  0  0  0  0  0  0  0  0
  -11.5770    5.6820   10.5960 N   0  0  0  0  0  0  0  0  0  0  0  0
  -12.4690    4.7490   10.1080 N   0  0  0  0  0  0  0  0  0  0  0  0
  -12.0160    4.1880    8.9920 N   0  0  0  0  0  0  0  0  0  0  0  0
  -10.8400    4.7900    8.7610 N   0  0  0  0  0  0  0  0  0  0  0  0
   -9.9950    4.4790    7.6090 C   0  0  0  0  0  0  0  0  0  0  0  0
   -8.6630    5.2070    7.7200 C   0  0  0  0  0  0  0  0  0  0  0  0
  -10.7490    4.8610    6.3730 C   0  0  0  0  0  0  0  0  0  0  0  0
  -11.0350    6.2020    6.1170 C   0  0  0  0  0  0  0  0  0  0  0  0
  -11.7370    6.5580    4.9650 C   0  0  0  0  0  0  0  0  0  0  0  0
  -12.1550    5.5730    4.0710 C   0  0  0  0  0  0  0  0  0  0  0  0
  -11.8700    4.2310    4.3270 C   0  0  0  0  0  0  0  0  0  0  0  0
  -11.1660    3.8760    5.4790 C   0  0  0  0  0  0  0  0  0  0  0  0
  -12.0160    7.8660    4.7150 O   0  0  0  0  0  0  0  0  0  0  0  0
   -6.8990    7.6510    9.7710 O   0  0  0  0  0  0  0  0  0  0  0  0
   -6.9100    2.9098    5.6300 C   0  0  0  0  0  0  0  0  0  0  0  0
   -7.0861    1.9052    4.6793 C   0  0  0  0  0  0  0  0  0  0  0  0
   -8.1437    1.9765    3.7747 C   0  0  0  0  0  0  0  0  0  0  0  0
   -9.0110    3.0662    3.7980 C   0  0  0  0  0  0  0  0  0  0  0  0
   -8.8403    4.1019    4.7328 C   0  0  0  0  0  0  0  0  0  1  0  0
   -9.7459    5.2752    4.6545 C   0  0  0  0  0  0  0  0  0  2  0  0
   -9.4578    6.5059    5.1193 N   0  0  0  0  0  0  0  0  0  0  0  0
  -10.5209    7.2363    4.8338 N   0  0  0  0  0  0  0  0  0  0  0  0
  -11.4184    6.4928    4.2084 N   0  0  0  0  0  0  0  0  0  0  0  0
  -10.9612    5.2586    4.0752 N   0  0  0  0  0  0  0  0  0  0  0  0
  1  3  4  0
  1 14  4  0
  1  2  1  0
  3  4  4  0
  4  5  4  0
  5  6  4  0
  5 22  1  0
  6  7  1  0
  6 14  4  0
  7  8  1  0
  8  9  4  0
  8 12  4  0
  9 10  4  0
 10 11  4  0
 11 12  4  0
 12 13  1  0
 13 14  1  0
 13 15  1  6
 15 16  4  0
 15 20  4  0
 16 17  4  0
 17 18  4  0
 17 21  1  0
 18 19  4  0
 19 20  4  0
 23 24  4  0
 24 25  4  0
 25 26  4  0
 26 27  4  0
 27 28  1  0
 28 29  4  0
 29 30  4  0
 30 31  4  0
 31 32  4  0
 32 28  4  0
  2 23  4  0
  2 27  4  0
M  CHG  1  32  -1
M  END
$$$$

     RDKit          3D

 32 37  0  0  0  0  0  0  0  0999 V2000
   -7.6410    4.9930    6.8080 C   0  0  0  0  0  0  0  0  0  1  0  0
   -7.7310    4.0530    5.7140 C   0  0  0  0  0  0  0  0  0  2  0  0
   -6.4520    5.6300    6.8680 N   0  0  0  0  0  0  0  0  0  0  0  0
   -6.2260    6.5240    7.8670 N   0  0  0  0  0  0  0  0  0  0  0  0
   -7.1930    6.7500    8.7820 C   0  0  0  0  0  0  0  0  0  0  0  0
   -8.4240    6.1170    8.7580 C   0  0  0  0  0  0  0  0  0  0  0  0
   -9.3950    6.3570    9.7450 N   0  0  0  0  0  0  0  0  0  0  0  0
  -10.5620    5.6840    9.7600 C   0  0  0  0  0  0  0  0  0  0  0  0
  -11.5770    5.6820   10.5960 N   0  0  0  0  0  0  0  0  0  0  0  0
  -12.4690    4.7490   10.1080 N   0  0  0  0  0  0  0  0  0  0  0  0
  -12.0160    4.1880    8.9920 N   0  0  0  0  0  0  0  0  0  0  0  0
  -10.8400    4.7900    8.7610 N   0  0  0  0  0  0  0  0  0  0  0  0
   -9.9950    4.4790    7.6090 C   0  0  0  0  0  0  0  0  0  0  0  0
   -8.6630    5.2070    7.7200 C   0  0  0  0  0  0  0  0  0  0  0  0
  -10.7490    4.8610    6.3730 C   0  0  0  0  0  0  0  0  0  0  0  0
  -11.0350    6.2020    6.1170 C   0  0  0  0  0  0  0  0  0  0  0  0
  -11.7370    6.5580    4.9650 C   0  0  0  0  0  0  0  0  0  0  0  0
  -12.1550    5.5730    4.0710 C   0  0  0  0  0  0  0  0  0  0  0  0
  -11.8700    4.2310    4.3270 C   0  0  0  0  0  0  0  0  0  0  0  0
  -11.1660    3.8760    5.4790 C   0  0  0  0  0  0  0  0  0  0  0  0
  -12.0160    7.8660    4.7150 O   0  0  0  0  0  0  0  0  0  0  0  0
   -6.8990    7.6510    9.7710 O   0  0  0  0  0  0  0  0  0  0  0  0
   -6.9327    2.8879    5.6657 C   0  0  0  0  0  0  0  0  0  0  0  0
   -7.0874    1.8912    4.7020 C   0  0  0  0  0  0  0  0  0  0  0  0
   -8.0993    1.9926    3.7502 C   0  0  0  0  0  0  0  0  0  0  0  0
   -8.9505    3.0991    3.7474 C   0  0  0  0  0  0  0  0  0  0  0  0
   -8.8016    4.1263    4.6985 C   0  0  0  0  0  0  0  0  0  1  0  0
   -9.6836    5.3167    4.5943 C   0  0  0  0  0  0  0  0  0  2  0  0
  -10.8424    5.3412    3.9079 N   0  0  0  0  0  0  0  0  0  0  0  0
  -11.2833    6.5822    4.0283 N   0  0  0  0  0  0  0  0  0  0  0  0
  -10.4296    7.2915    4.7488 N   0  0  0  0  0  0  0  0  0  0  0  0
   -9.4127    6.5290    5.1140 N   0  0  0  0  0  0  0  0  0  0  0  0
  1  3  4  0
  1 14  4  0
  1  2  1  0
  3  4  4  0
  4  5  4  0
  5  6  4  0
  5 22  1  0
  6  7  1  0
  6 14  4  0
  7  8  1  0
  8  9  4  0
  8 12  4  0
  9 10  4  0
 10 11  4  0
 11 12  4  0
 12 13  1  0
 13 14  1  0
 13 15  1  6
 15 16  4  0
 15 20  4  0
 16 17  4  0
 17 18  4  0
 17 21  1  0
 18 19  4  0
 19 20  4  0
 23 24  4  0
 24 25  4  0
 25 26  4  0
 26 27  4  0
 27 28  1  0
 28 29  4  0
 29 30  4  0
 30 31  4  0
 31 32  4  0
 32 28  4  0
  2 23  4  0
  2 27  4  0
M  CHG  1  32  -1
M  END
$$$$

     RDKit          3D

 40 45  0  0  0  0  0  0  0  0999 V2000
   -7.6410    4.9930    6.8080 C   0  0  0  0  0  0  0  0  0  1  0  0
   -7.7310    4.0530    5.7140 C   0  0  0  0  0  0  0  0  0  2  0  0
   -6.4520    5.6300    6.8680 N   0  0  0  0  0  0  0  0  0  0  0  0
   -6.2260    6.5240    7.8670 N   0  0  0  0  0  0  0  0  0  0  0  0
   -7.1930    6.7500    8.7820 C   0  0  0  0  0  0  0  0  0  0  0  0
   -8.4240    6.1170    8.7580 C   0  0  0  0  0  0  0  0  0  0  0  0
   -9.3950    6.3570    9.7450 N   0  0  0  0  0  0  0  0  0  0  0  0
  -10.5620    5.6840    9.7600 C   0  0  0  0  0  0  0  0  0  0  0  0
  -11.5770    5.6820   10.5960 N   0  0  0  0  0  0  0  0  0  0  0  0
  -12.4690    4.7490   10.1080 N   0  0  0  0  0  0  0  0  0  0  0  0
  -12.0160    4.1880    8.9920 N   0  0  0  0  0  0  0  0  0  0  0  0
  -10.8400    4.7900    8.7610 N   0  0  0  0  0  0  0  0  0  0  0  0
   -9.9950    4.4790    7.6090 C   0  0  0  0  0  0  0  0  0  0  0  0
   -8.6630    5.2070    7.7200 C   0  0  0  0  0  0  0  0  0  0  0  0
  -10.7490    4.8610    6.3730 C   0  0  0  0  0  0  0  0  0  0  0  0
  -11.0350    6.2020    6.1170 C   0  0  0  0  0  0  0  0  0  0  0  0
  -11.7370    6.5580    4.9650 C   0  0  0  0  0  0  0  0  0  0  0  0
  -12.1550    5.5730    4.0710 C   0  0  0  0  0  0  0  0  0  0  0  0
  -11.8700    4.2310    4.3270 C   0  0  0  0  0  0  0  0  0  0  0  0
  -11.1660    3.8760    5.4790 C   0  0  0  0  0  0  0  0  0  0  0  0
  -12.0160    7.8660    4.7150 O   0  0  0  0  0  0  0  0  0  0  0  0
   -6.8990    7.6510    9.7710 O   0  0  0  0  0  0  0  0  0  0  0  0
   -6.7906    3.1861    5.2868 N   0  0  0  0  0  0  0  0  0  0  0  0
   -7.2696    2.4415    4.3012 N   0  0  0  0  0  0  0  0  0  0  0  0
   -8.5454    2.8226    4.1094 C   0  0  0  0  0  0  0  0  0  0  0  0
   -9.6193    2.0886    2.8742 S   0  0  0  0  0  0  0  0  0  0  0  0
  -10.2659    0.8291    4.0223 C   0  0  0  0  0  0  0  0  0  0  0  0
  -11.3256   -0.0171    3.3190 C   0  0  0  0  0  0  0  0  0  0  0  0
  -11.8880   -1.0879    4.2574 C   0  0  0  0  0  0  0  0  0  0  0  0
  -12.9325   -1.8543    3.5816 N   0  0  0  0  0  0  0  0  0  0  0  0
  -12.7771   -2.8033    2.5414 C   0  0  0  0  0  0  0  0  0  0  0  0
  -11.6691   -3.0959    2.0194 O   0  0  0  0  0  0  0  0  0  0  0  0
  -14.0047   -3.4087    2.1601 N   0  0  0  0  0  0  0  0  0  0  0  0
  -15.0705   -2.8508    2.9961 C   0  0  0  0  0  0  0  0  0  0  0  0
  -16.0990   -2.1221    2.1239 C   0  0  0  0  0  0  0  0  0  0  0  0
  -15.7232   -3.9596    3.8293 C   0  0  0  0  0  0  0  0  0  0  0  0
  -14.3239   -1.8806    3.8769 C   0  0  0  0  0  0  0  0  0  0  0  0
  -14.8561   -1.1685    4.7706 O   0  0  0  0  0  0  0  0  0  0  0  0
   -8.9002    3.8141    4.9497 N   0  0  0  0  0  0  0  0  0  0  0  0
  -10.1869    4.5051    5.0167 C   0  0  0  0  0  0  0  0  0  0  0  0
  1  3  4  0
  1 14  4  0
  1  2  1  0
  3  4  4  0
  4  5  4  0
  5  6  4  0
  5 22  1  0
  6  7  1  0
  6 14  4  0
  7  8  1  0
  8  9  4  0
  8 12  4  0
  9 10  4  0
 10 11  4  0
 11 12  4  0
 12 13  1  0
 13 14  1  0
 13 15  1  6
 15 16  4  0
 15 20  4  0
 16 17  4  0
 17 18  4  0
 17 21  1  0
 18 19  4  0
 19 20  4  0
 23 24  4  0
 24 25  4  0
 25 26  1  0
 26 27  1  0
 27 28  1  0
 28 29  1  0
 29 30  1  0
 30 31  1  0
 31 32  2  0
 31 33  1  0
 33 34  1  0
 34 35  1  0
 34 36  1  0
 34 37  1  0
 37 38  2  0
 25 39  4  0
 39 40  1  0
 37 30  1  0
  2 23  4  0
  2 39  4  0
M  END
$$$$

     RDKit          3D

 40 45  0  0  0  0  0  0  0  0999 V2000
   -7.6410    4.9930    6.8080 C   0  0  0  0  0  0  0  0  0  1  0  0
   -7.7310    4.0530    5.7140 C   0  0  0  0  0  0  0  0  0  2  0  0
   -6.4520    5.6300    6.8680 N   0  0  0  0  0  0  0  0  0  0  0  0
   -6.2260    6.5240    7.8670 N   0  0  0  0  0  0  0  0  0  0  0  0
   -7.1930    6.7500    8.7820 C   0  0  0  0  0  0  0  0  0  0  0  0
   -8.4240    6.1170    8.7580 C   0  0  0  0  0  0  0  0  0  0  0  0
   -9.3950    6.3570    9.7450 N   0  0  0  0  0  0  0  0  0  0  0  0
  -10.5620    5.6840    9.7600 C   0  0  0  0  0  0  0  0  0  0  0  0
  -11.5770    5.6820   10.5960 N   0  0  0  0  0  0  0  0  0  0  0  0
  -12.4690    4.7490   10.1080 N   0  0  0  0  0  0  0  0  0  0  0  0
  -12.0160    4.1880    8.9920 N   0  0  0  0  0  0  0  0  0  0  0  0
  -10.8400    4.7900    8.7610 N   0  0  0  0  0  0  0  0  0  0  0  0
   -9.9950    4.4790    7.6090 C   0  0  0  0  0  0  0  0  0  0  0  0
   -8.6630    5.2070    7.7200 C   0  0  0  0  0  0  0  0  0  0  0  0
  -10.7490    4.8610    6.3730 C   0  0  0  0  0  0  0  0  0  0  0  0
  -11.0350    6.2020    6.1170 C   0  0  0  0  0  0  0  0  0  0  0  0
  -11.7370    6.5580    4.9650 C   0  0  0  0  0  0  0  0  0  0  0  0
  -12.1550    5.5730    4.0710 C   0  0  0  0  0  0  0  0  0  0  0  0
  -11.8700    4.2310    4.3270 C   0  0  0  0  0  0  0  0  0  0  0  0
  -11.1660    3.8760    5.4790 C   0  0  0  0  0  0  0  0  0  0  0  0
  -12.0160    7.8660    4.7150 O   0  0  0  0  0  0  0  0  0  0  0  0
   -6.8990    7.6510    9.7710 O   0  0  0  0  0  0  0  0  0  0  0  0
   -6.7951    3.1764    5.2963 N   0  0  0  0  0  0  0  0  0  0  0  0
   -7.2746    2.4316    4.3111 N   0  0  0  0  0  0  0  0  0  0  0  0
   -8.5456    2.8238    4.1090 C   0  0  0  0  0  0  0  0  0  0  0  0
   -9.6153    2.0947    2.8682 S   0  0  0  0  0  0  0  0  0  0  0  0
   -9.0465    3.2237    1.5502 C   0  0  0  0  0  0  0  0  0  0  0  0
   -9.6943    2.8792    0.2037 C   0  0  0  0  0  0  0  0  0  0  0  0
   -9.2930    1.4946   -0.3306 C   0  0  0  0  0  0  0  0  0  0  0  0
   -7.8411    1.3731   -0.4589 N   0  0  0  0  0  0  0  0  0  0  0  0
   -6.9656    0.5886    0.3316 C   0  0  0  0  0  0  0  0  0  0  0  0
   -7.3523   -0.1909    1.2419 O   0  0  0  0  0  0  0  0  0  0  0  0
   -5.5971    0.7880    0.0019 N   0  0  0  0  0  0  0  0  0  0  0  0
   -5.5261    1.7796   -1.0738 C   0  0  0  0  0  0  0  0  0  0  0  0
   -4.7745    3.0253   -0.5926 C   0  0  0  0  0  0  0  0  0  0  0  0
   -4.8671    1.1653   -2.3130 C   0  0  0  0  0  0  0  0  0  0  0  0
   -6.9785    2.0954   -1.3290 C   0  0  0  0  0  0  0  0  0  0  0  0
   -7.3951    2.8950   -2.2096 O   0  0  0  0  0  0  0  0  0  0  0  0
   -8.8981    3.8199    4.9446 N   0  0  0  0  0  0  0  0  0  0  0  0
  -10.1826    4.5158    5.0108 C   0  0  0  0  0  0  0  0  0  0  0  0
  1  3  4  0
  1 14  4  0
  1  2  1  0
  3  4  4  0
  4  5  4  0
  5  6  4  0
  5 22  1  0
  6  7  1  0
  6 14  4  0
  7  8  1  0
  8  9  4  0
  8 12  4  0
  9 10  4  0
 10 11  4  0
 11 12  4  0
 12 13  1  0
 13 14  1  0
 13 15  1  6
 15 16  4  0
 15 20  4  0
 16 17  4  0
 17 18  4  0
 17 21  1  0
 18 19  4  0
 19 20  4  0
 23 24  4  0
 24 25  4  0
 25 26  1  0
 26 27  1  0
 27 28  1  0
 28 29  1  0
 29 30  1  0
 30 31  1  0
 31 32  2  0
 31 33  1  0
 33 34  1  0
 34 35  1  0
 34 36  1  0
 34 37  1  0
 37 38  2  0
 25 39  4  0
 39 40  1  0
 37 30  1  0
  2 23  4  0
  2 39  4  0
M  END
$$$$

     RDKit          3D

 40 45  0  0  0  0  0  0  0  0999 V2000
   -7.6410    4.9930    6.8080 C   0  0  0  0  0  0  0  0  0  1  0  0
   -7.7310    4.0530    5.7140 C   0  0  0  0  0  0  0  0  0  2  0  0
   -6.4520    5.6300    6.8680 N   0  0  0  0  0  0  0  0  0  0  0  0
   -6.2260    6.5240    7.8670 N   0  0  0  0  0  0  0  0  0  0  0  0
   -7.1930    6.7500    8.7820 C   0  0  0  0  0  0  0  0  0  0  0  0
   -8.4240    6.1170    8.7580 C   0  0  0  0  0  0  0  0  0  0  0  0
   -9.3950    6.3570    9.7450 N   0  0  0  0  0  0  0  0  0  0  0  0
  -10.5620    5.6840    9.7600 C   0  0  0  0  0  0  0  0  0  0  0  0
  -11.5770    5.6820   10.5960 N   0  0  0  0  0  0  0  0  0  0  0  0
  -12.4690    4.7490   10.1080 N   0  0  0  0  0  0  0  0  0  0  0  0
  -12.0160    4.1880    8.9920 N   0  0  0  0  0  0  0  0  0  0  0  0
  -10.8400    4.7900    8.7610 N   0  0  0  0  0  0  0  0  0  0  0  0
   -9.9950    4.4790    7.6090 C   0  0  0  0  0  0  0  0  0  0  0  0
   -8.6630    5.2070    7.7200 C   0  0  0  0  0  0  0  0  0  0  0  0
  -10.7490    4.8610    6.3730 C   0  0  0  0  0  0  0  0  0  0  0  0
  -11.0350    6.2020    6.1170 C   0  0  0  0  0  0  0  0  0  0  0  0
  -11.7370    6.5580    4.9650 C   0  0  0  0  0  0  0  0  0  0  0  0
  -12.1550    5.5730    4.0710 C   0  0  0  0  0  0  0  0  0  0  0  0
  -11.8700    4.2310    4.3270 C   0  0  0  0  0  0  0  0  0  0  0  0
  -11.1660    3.8760    5.4790 C   0  0  0  0  0  0  0  0  0  0  0  0
  -12.0160    7.8660    4.7150 O   0  0  0  0  0  0  0  0  0  0  0  0
   -6.8990    7.6510    9.7710 O   0  0  0  0  0  0  0  0  0  0  0  0
   -6.7886    3.1896    5.2846 N   0  0  0  0  0  0  0  0  0  0  0  0
   -7.2675    2.4435    4.3000 N   0  0  0  0  0  0  0  0  0  0  0  0
   -8.5459    2.8184    4.1125 C   0  0  0  0  0  0  0  0  0  0  0  0
   -9.6188    2.0858    2.8723 S   0  0  0  0  0  0  0  0  0  0  0  0
  -10.3647    0.8695    4.0122 C   0  0  0  0  0  0  0  0  0  0  0  0
   -9.4460   -0.3436    4.1924 C   0  0  0  0  0  0  0  0  0  0  0  0
  -10.0520   -1.3819    5.1435 C   0  0  0  0  0  0  0  0  0  0  0  0
  -11.2877   -1.9401    4.5961 N   0  0  0  0  0  0  0  0  0  0  0  0
  -11.4358   -2.7847    3.4688 C   0  0  0  0  0  0  0  0  0  0  0  0
  -10.4719   -3.2047    2.7760 O   0  0  0  0  0  0  0  0  0  0  0  0
  -12.7914   -3.1211    3.2074 N   0  0  0  0  0  0  0  0  0  0  0  0
  -13.6287   -2.4712    4.2188 C   0  0  0  0  0  0  0  0  0  0  0  0
  -14.3832   -3.5252    5.0371 C   0  0  0  0  0  0  0  0  0  0  0  0
  -14.5899   -1.4814    3.5508 C   0  0  0  0  0  0  0  0  0  0  0  0
  -12.6154   -1.7478    5.0695 C   0  0  0  0  0  0  0  0  0  0  0  0
  -12.8965   -1.0414    6.0748 O   0  0  0  0  0  0  0  0  0  0  0  0
   -8.9012    3.8105    4.9521 N   0  0  0  0  0  0  0  0  0  0  0  0
  -10.1893    4.4988    5.0210 C   0  0  0  0  0  0  0  0  0  0  0  0
  1  3  4  0
  1 14  4  0
  1  2  1  0
  3  4  4  0
  4  5  4  0
  5  6  4  0
  5 22  1  0
  6  7  1  0
  6 14  4  0
  7  8  1  0
  8  9  4  0
  8 12  4  0
  9 10  4  0
 10 11  4  0
 11 12  4  0
 12 13  1  0
 13 14  1  0
 13 15  1  6
 15 16  4  0
 15 20  4  0
 16 17  4  0
 17 18  4  0
 17 21  1  0
 18 19  4  0
 19 20  4  0
 23 24  4  0
 24 25  4  0
 25 26  1  0
 26 27  1  0
 27 28  1  0
 28 29  1  0
 29 30  1  0
 30 31  1  0
 31 32  2  0
 31 33  1  0
 33 34  1  0
 34 35  1  0
 34 36  1  0
 34 37  1  0
 37 38  2  0
 25 39  4  0
 39 40  1  0
 37 30  1  0
  2 23  4  0
  2 39  4  0
M  END
$$$$

     RDKit          3D

 40 45  0  0  0  0  0  0  0  0999 V2000
   -7.6410    4.9930    6.8080 C   0  0  0  0  0  0  0  0  0  1  0  0
   -7.7310    4.0530    5.7140 C   0  0  0  0  0  0  0  0  0  2  0  0
   -6.4520    5.6300    6.8680 N   0  0  0  0  0  0  0  0  0  0  0  0
   -6.2260    6.5240    7.8670 N   0  0  0  0  0  0  0  0  0  0  0  0
   -7.1930    6.7500    8.7820 C   0  0  0  0  0  0  0  0  0  0  0  0
   -8.4240    6.1170    8.7580 C   0  0  0  0  0  0  0  0  0  0  0  0
   -9.3950    6.3570    9.7450 N   0  0  0  0  0  0  0  0  0  0  0  0
  -10.5620    5.6840    9.7600 C   0  0  0  0  0  0  0  0  0  0  0  0
  -11.5770    5.6820   10.5960 N   0  0  0  0  0  0  0  0  0  0  0  0
  -12.4690    4.7490   10.1080 N   0  0  0  0  0  0  0  0  0  0  0  0
  -12.0160    4.1880    8.9920 N   0  0  0  0  0  0  0  0  0  0  0  0
  -10.8400    4.7900    8.7610 N   0  0  0  0  0  0  0  0  0  0  0  0
   -9.9950    4.4790    7.6090 C   0  0  0  0  0  0  0  0  0  0  0  0
   -8.6630    5.2070    7.7200 C   0  0  0  0  0  0  0  0  0  0  0  0
  -10.7490    4.8610    6.3730 C   0  0  0  0  0  0  0  0  0  0  0  0
  -11.0350    6.2020    6.1170 C   0  0  0  0  0  0  0  0  0  0  0  0
  -11.7370    6.5580    4.9650 C   0  0  0  0  0  0  0  0  0  0  0  0
  -12.1550    5.5730    4.0710 C   0  0  0  0  0  0  0  0  0  0  0  0
  -11.8700    4.2310    4.3270 C   0  0  0  0  0  0  0  0  0  0  0  0
  -11.1660    3.8760    5.4790 C   0  0  0  0  0  0  0  0  0  0  0  0
  -12.0160    7.8660    4.7150 O   0  0  0  0  0  0  0  0  0  0  0  0
   -6.8990    7.6510    9.7710 O   0  0  0  0  0  0  0  0  0  0  0  0
   -6.7957    3.1717    5.3041 N   0  0  0  0  0  0  0  0  0  0  0  0
   -7.2643    2.4444    4.3012 N   0  0  0  0  0  0  0  0  0  0  0  0
   -8.5258    2.8552    4.0761 C   0  0  0  0  0  0  0  0  0  0  0  0
   -9.5730    2.1564    2.7940 S   0  0  0  0  0  0  0  0  0  0  0  0
   -8.7781    3.0692    1.4191 C   0  0  0  0  0  0  0  0  0  0  0  0
   -9.2559    4.5248    1.3223 C   0  0  0  0  0  0  0  0  0  0  0  0
  -10.7405    4.6489    0.9496 C   0  0  0  0  0  0  0  0  0  0  0  0
  -11.0003    4.0818   -0.3726 N   0  0  0  0  0  0  0  0  0  0  0  0
  -10.5890    4.5857   -1.6308 C   0  0  0  0  0  0  0  0  0  0  0  0
   -9.9147    5.6390   -1.7782 O   0  0  0  0  0  0  0  0  0  0  0  0
  -11.0308    3.7822   -2.7164 N   0  0  0  0  0  0  0  0  0  0  0  0
  -11.8016    2.6608   -2.1733 C   0  0  0  0  0  0  0  0  0  0  0  0
  -13.2430    2.7100   -2.6923 C   0  0  0  0  0  0  0  0  0  0  0  0
  -11.1206    1.3330   -2.5247 C   0  0  0  0  0  0  0  0  0  0  0  0
  -11.7517    2.9159   -0.6880 C   0  0  0  0  0  0  0  0  0  0  0  0
  -12.2985    2.1879    0.1834 O   0  0  0  0  0  0  0  0  0  0  0  0
   -8.8863    3.8403    4.9232 N   0  0  0  0  0  0  0  0  0  0  0  0
  -10.1799    4.5166    5.0139 C   0  0  0  0  0  0  0  0  0  0  0  0
  1  3  4  0
  1 14  4  0
  1  2  1  0
  3  4  4  0
  4  5  4  0
  5  6  4  0
  5 22  1  0
  6  7  1  0
  6 14  4  0
  7  8  1  0
  8  9  4  0
  8 12  4  0
  9 10  4  0
 10 11  4  0
 11 12  4  0
 12 13  1  0
 13 14  1  0
 13 15  1  6
 15 16  4  0
 15 20  4  0
 16 17  4  0
 17 18  4  0
 17 21  1  0
 18 19  4  0
 19 20  4  0
 23 24  4  0
 24 25  4  0
 25 26  1  0
 26 27  1  0
 27 28  1  0
 28 29  1  0
 29 30  1  0
 30 31  1  0
 31 32  2  0
 31 33  1  0
 33 34  1  0
 34 35  1  0
 34 36  1  0
 34 37  1  0
 37 38  2  0
 25 39  4  0
 39 40  1  0
 37 30  1  0
  2 23  4  0
  2 39  4  0
M  END
$$$$

     RDKit          3D

 30 34  0  0  0  0  0  0  0  0999 V2000
   -7.6410    4.9930    6.8080 C   0  0  0  0  0  0  0  0  0  1  0  0
   -7.7310    4.0530    5.7140 C   0  0  0  0  0  0  0  0  0  2  0  0
   -6.4520    5.6300    6.8680 N   0  0  0  0  0  0  0  0  0  0  0  0
   -6.2260    6.5240    7.8670 N   0  0  0  0  0  0  0  0  0  0  0  0
   -7.1930    6.7500    8.7820 C   0  0  0  0  0  0  0  0  0  0  0  0
   -8.4240    6.1170    8.7580 C   0  0  0  0  0  0  0  0  0  0  0  0
   -9.3950    6.3570    9.7450 N   0  0  0  0  0  0  0  0  0  0  0  0
  -10.5620    5.6840    9.7600 C   0  0  0  0  0  0  0  0  0  0  0  0
  -11.5770    5.6820   10.5960 N   0  0  0  0  0  0  0  0  0  0  0  0
  -12.4690    4.7490   10.1080 N   0  0  0  0  0  0  0  0  0  0  0  0
  -12.0160    4.1880    8.9920 N   0  0  0  0  0  0  0  0  0  0  0  0
  -10.8400    4.7900    8.7610 N   0  0  0  0  0  0  0  0  0  0  0  0
   -9.9950    4.4790    7.6090 C   0  0  0  0  0  0  0  0  0  0  0  0
   -8.6630    5.2070    7.7200 C   0  0  0  0  0  0  0  0  0  0  0  0
  -10.7490    4.8610    6.3730 C   0  0  0  0  0  0  0  0  0  0  0  0
  -11.0350    6.2020    6.1170 C   0  0  0  0  0  0  0  0  0  0  0  0
  -11.7370    6.5580    4.9650 C   0  0  0  0  0  0  0  0  0  0  0  0
  -12.1550    5.5730    4.0710 C   0  0  0  0  0  0  0  0  0  0  0  0
  -11.8700    4.2310    4.3270 C   0  0  0  0  0  0  0  0  0  0  0  0
  -11.1660    3.8760    5.4790 C   0  0  0  0  0  0  0  0  0  0  0  0
  -12.0160    7.8660    4.7150 O   0  0  0  0  0  0  0  0  0  0  0  0
   -6.8990    7.6510    9.7710 O   0  0  0  0  0  0  0  0  0  0  0  0
   -6.8057    3.0570    5.3832 C   0  0  0  0  0  0  0  0  0  0  0  0
   -6.9795    2.1511    4.3366 C   0  0  0  0  0  0  0  0  0  0  0  0
   -5.7027    1.0171    3.9392 Cl  0  0  0  0  0  0  0  0  0  0  0  0
   -8.1700    2.1464    3.6068 C   0  0  0  0  0  0  0  0  0  0  0  0
   -9.1899    3.0519    3.9143 C   0  0  0  0  0  0  0  0  0  0  0  0
  -10.6699    2.9977    2.9646 Cl  0  0  0  0  0  0  0  0  0  0  0  0
   -9.0131    3.9861    4.9570 C   0  0  0  0  0  0  0  0  0  0  0  0
  -10.0070    4.9185    5.2649 O   0  0  0  0  0  0  0  0  0  0  0  0
  1  3  4  0
  1 14  4  0
  1  2  1  0
  3  4  4  0
  4  5  4  0
  5  6  4  0
  5 22  1  0
  6  7  1  0
  6 14  4  0
  7  8  1  0
  8  9  4  0
  8 12  4  0
  9 10  4  0
 10 11  4  0
 11 12  4  0
 12 13  1  0
 13 14  1  0
 13 15  1  6
 15 16  4  0
 15 20  4  0
 16 17  4  0
 17 18  4  0
 17 21  1  0
 18 19  4  0
 19 20  4  0
 23 24  4  0
 24 25  1  0
 24 26  4  0
 26 27  4  0
 27 28  1  0
 27 29  4  0
 29 30  1  0
  2 23  4  0
  2 29  4  0
M  END
$$$$

     RDKit          3D

 48 54  0  0  0  0  0  0  0  0999 V2000
   -7.6410    4.9930    6.8080 C   0  0  0  0  0  0  0  0  0  1  0  0
   -7.7310    4.0530    5.7140 C   0  0  0  0  0  0  0  0  0  2  0  0
   -6.4520    5.6300    6.8680 N   0  0  0  0  0  0  0  0  0  0  0  0
   -6.2260    6.5240    7.8670 N   0  0  0  0  0  0  0  0  0  0  0  0
   -7.1930    6.7500    8.7820 C   0  0  0  0  0  0  0  0  0  0  0  0
   -8.4240    6.1170    8.7580 C   0  0  0  0  0  0  0  0  0  0  0  0
   -9.3950    6.3570    9.7450 N   0  0  0  0  0  0  0  0  0  0  0  0
  -10.5620    5.6840    9.7600 C   0  0  0  0  0  0  0  0  0  0  0  0
  -11.5770    5.6820   10.5960 N   0  0  0  0  0  0  0  0  0  0  0  0
  -12.4690    4.7490   10.1080 N   0  0  0  0  0  0  0  0  0  0  0  0
  -12.0160    4.1880    8.9920 N   0  0  0  0  0  0  0  0  0  0  0  0
  -10.8400    4.7900    8.7610 N   0  0  0  0  0  0  0  0  0  0  0  0
   -9.9950    4.4790    7.6090 C   0  0  0  0  0  0  0  0  0  0  0  0
   -8.6630    5.2070    7.7200 C   0  0  0  0  0  0  0  0  0  0  0  0
  -10.7490    4.8610    6.3730 C   0  0  0  0  0  0  0  0  0  0  0  0
  -11.0350    6.2020    6.1170 C   0  0  0  0  0  0  0  0  0  0  0  0
  -11.7370    6.5580    4.9650 C   0  0  0  0  0  0  0  0  0  0  0  0
  -12.1550    5.5730    4.0710 C   0  0  0  0  0  0  0  0  0  0  0  0
  -11.8700    4.2310    4.3270 C   0  0  0  0  0  0  0  0  0  0  0  0
  -11.1660    3.8760    5.4790 C   0  0  0  0  0  0  0  0  0  0  0  0
  -12.0160    7.8660    4.7150 O   0  0  0  0  0  0  0  0  0  0  0  0
   -6.8990    7.6510    9.7710 O   0  0  0  0  0  0  0  0  0  0  0  0
   -7.0943    2.7697    5.7227 C   0  0  0  0  0  0  0  0  0  1  0  0
   -6.2018    2.4028    6.8412 C   0  0  0  0  0  0  0  0  0  2  0  0
   -4.8264    2.2678    6.6008 C   0  0  0  0  0  0  0  0  0  0  0  0
   -3.9520    1.9630    7.6462 C   0  0  0  0  0  0  0  0  0  0  0  0
   -4.4446    1.7868    8.9535 C   0  0  0  0  0  0  0  0  0  0  0  0
   -3.6061    1.5147   10.0457 O   0  0  0  0  0  0  0  0  0  0  0  0
   -2.1872    1.4061    9.9693 C   0  0  0  0  0  0  0  0  0  0  0  0
   -1.6321    1.2519   11.3545 C   0  0  0  0  0  0  0  0  0  0  0  0
   -1.3373    2.3868   12.1254 C   0  0  0  0  0  0  0  0  0  0  0  0
   -0.8560    2.2468   13.4297 C   0  0  0  0  0  0  0  0  0  0  0  0
   -0.6731    0.9724   13.9765 C   0  0  0  0  0  0  0  0  0  0  0  0
   -0.0598    0.8011   15.6100 Cl  0  0  0  0  0  0  0  0  0  0  0  0
   -0.9735   -0.1637   13.2164 C   0  0  0  0  0  0  0  0  0  0  0  0
   -1.4527   -0.0262   11.9103 C   0  0  0  0  0  0  0  0  0  0  0  0
   -5.8215    1.8808    9.1832 C   0  0  0  0  0  0  0  0  0  0  0  0
   -6.7040    2.1727    8.1332 C   0  0  0  0  0  0  0  0  0  0  0  0
   -8.0777    2.2159    8.3707 O   0  0  0  0  0  0  0  0  0  0  0  0
   -7.2076    1.9060    4.6807 N   0  0  0  0  0  0  0  0  0  0  0  0
   -7.9827    2.1913    3.6050 C   0  0  0  0  0  0  0  0  0  0  0  0
   -8.0921    1.2547    2.5362 N   0  0  0  0  0  0  0  0  0  0  0  0
   -8.6420    3.3755    3.5416 N   0  0  0  0  0  0  0  0  0  0  0  0
   -8.5544    4.3000    4.5366 C   0  0  0  0  0  0  0  0  0  0  0  0
   -9.2898    5.6074    4.3631 C   0  0  0  0  0  0  0  0  0  0  0  0
   -8.4669    6.6752    4.6737 F   0  0  0  0  0  0  0  0  0  0  0  0
  -10.4045    5.6330    5.1798 F   0  0  0  0  0  0  0  0  0  0  0  0
   -9.7052    5.7515    3.0504 F   0  0  0  0  0  0  0  0  0  0  0  0
  1  3  4  0
  1 14  4  0
  1  2  1  0
  3  4  4  0
  4  5  4  0
  5  6  4  0
  5 22  1  0
  6  7  1  0
  6 14  4  0
  7  8  1  0
  8  9  4  0
  8 12  4  0
  9 10  4  0
 10 11  4  0
 11 12  4  0
 12 13  1  0
 13 14  1  0
 13 15  1  6
 15 16  4  0
 15 20  4  0
 16 17  4  0
 17 18  4  0
 17 21  1  0
 18 19  4  0
 19 20  4  0
 23 24  1  0
 24 25  4  0
 25 26  4  0
 26 27  4  0
 27 28  1  0
 28 29  1  0
 29 30  1  0
 30 31  4  0
 31 32  4  0
 32 33  4  0
 33 34  1  0
 33 35  4  0
 35 36  4  0
 27 37  4  0
 37 38  4  0
 38 39  1  0
 23 40  4  0
 40 41  4  0
 41 42  1  0
 41 43  4  0
 43 44  4  0
 44 45  1  0
 45 46  1  0
 45 47  1  0
 45 48  1  0
 38 24  4  0
 36 30  4  0
  2 23  4  0
  2 44  4  0
M  END
$$$$

     RDKit          3D

 37 42  0  0  0  0  0  0  0  0999 V2000
   -7.6410    4.9930    6.8080 C   0  0  0  0  0  0  0  0  0  1  0  0
   -7.7310    4.0530    5.7140 C   0  0  0  0  0  0  0  0  0  2  0  0
   -6.4520    5.6300    6.8680 N   0  0  0  0  0  0  0  0  0  0  0  0
   -6.2260    6.5240    7.8670 N   0  0  0  0  0  0  0  0  0  0  0  0
   -7.1930    6.7500    8.7820 C   0  0  0  0  0  0  0  0  0  0  0  0
   -8.4240    6.1170    8.7580 C   0  0  0  0  0  0  0  0  0  0  0  0
   -9.3950    6.3570    9.7450 N   0  0  0  0  0  0  0  0  0  0  0  0
  -10.5620    5.6840    9.7600 C   0  0  0  0  0  0  0  0  0  0  0  0
  -11.5770    5.6820   10.5960 N   0  0  0  0  0  0  0  0  0  0  0  0
  -12.4690    4.7490   10.1080 N   0  0  0  0  0  0  0  0  0  0  0  0
  -12.0160    4.1880    8.9920 N   0  0  0  0  0  0  0  0  0  0  0  0
  -10.8400    4.7900    8.7610 N   0  0  0  0  0  0  0  0  0  0  0  0
   -9.9950    4.4790    7.6090 C   0  0  0  0  0  0  0  0  0  0  0  0
   -8.6630    5.2070    7.7200 C   0  0  0  0  0  0  0  0  0  0  0  0
  -10.7490    4.8610    6.3730 C   0  0  0  0  0  0  0  0  0  0  0  0
  -11.0350    6.2020    6.1170 C   0  0  0  0  0  0  0  0  0  0  0  0
  -11.7370    6.5580    4.9650 C   0  0  0  0  0  0  0  0  0  0  0  0
  -12.1550    5.5730    4.0710 C   0  0  0  0  0  0  0  0  0  0  0  0
  -11.8700    4.2310    4.3270 C   0  0  0  0  0  0  0  0  0  0  0  0
  -11.1660    3.8760    5.4790 C   0  0  0  0  0  0  0  0  0  0  0  0
  -12.0160    7.8660    4.7150 O   0  0  0  0  0  0  0  0  0  0  0  0
   -6.8990    7.6510    9.7710 O   0  0  0  0  0  0  0  0  0  0  0  0
   -6.9627    2.8721    5.5992 C   0  0  0  0  0  0  0  0  0  0  0  0
   -7.1165    1.9520    4.5597 C   0  0  0  0  0  0  0  0  0  0  0  0
   -8.1167    2.1406    3.5883 C   0  0  0  0  0  0  0  0  0  0  0  0
   -8.3023    1.2545    2.5166 O   0  0  0  0  0  0  0  0  0  0  0  0
   -7.5367    0.0715    2.3045 C   0  0  0  0  0  0  0  0  0  0  0  0
   -8.0083   -0.6081    1.0509 C   0  0  0  0  0  0  0  0  0  0  0  0
   -7.1461   -0.7683   -0.0470 C   0  0  0  0  0  0  0  0  0  0  0  0
   -7.5989   -1.3937   -1.2120 C   0  0  0  0  0  0  0  0  0  0  0  0
   -8.9125   -1.8664   -1.2908 C   0  0  0  0  0  0  0  0  0  0  0  0
   -9.4795   -2.6438   -2.7572 Cl  0  0  0  0  0  0  0  0  0  0  0  0
   -9.7755   -1.7119   -0.2003 C   0  0  0  0  0  0  0  0  0  0  0  0
   -9.3258   -1.0871    0.9671 C   0  0  0  0  0  0  0  0  0  0  0  0
   -8.9612    3.2520    3.6835 C   0  0  0  0  0  0  0  0  0  0  0  0
   -8.8115    4.1779    4.7255 C   0  0  0  0  0  0  0  0  0  0  0  0
   -9.6530    5.2881    4.7988 O   0  0  0  0  0  0  0  0  0  0  0  0
  1  3  4  0
  1 14  4  0
  1  2  1  0
  3  4  4  0
  4  5  4  0
  5  6  4  0
  5 22  1  0
  6  7  1  0
  6 14  4  0
  7  8  1  0
  8  9  4  0
  8 12  4  0
  9 10  4  0
 10 11  4  0
 11 12  4  0
 12 13  1  0
 13 14  1  0
 13 15  1  6
 15 16  4  0
 15 20  4  0
 16 17  4  0
 17 18  4  0
 17 21  1  0
 18 19  4  0
 19 20  4  0
 23 24  4  0
 24 25  4  0
 25 26  1  0
 26 27  1  0
 27 28  1  0
 28 29  4  0
 29 30  4  0
 30 31  4  0
 31 32  1  0
 31 33  4  0
 33 34  4  0
 25 35  4  0
 35 36  4  0
 36 37  1  0
 34 28  4  0
  2 23  4  0
  2 36  4  0
M  END
$$$$

     RDKit          3D

 30 35  0  0  0  0  0  0  0  0999 V2000
   -7.6410    4.9930    6.8080 C   0  0  0  0  0  0  0  0  0  1  0  0
   -7.7310    4.0530    5.7140 C   0  0  0  0  0  0  0  0  0  2  0  0
   -6.4520    5.6300    6.8680 N   0  0  0  0  0  0  0  0  0  0  0  0
   -6.2260    6.5240    7.8670 N   0  0  0  0  0  0  0  0  0  0  0  0
   -7.1930    6.7500    8.7820 C   0  0  0  0  0  0  0  0  0  0  0  0
   -8.4240    6.1170    8.7580 C   0  0  0  0  0  0  0  0  0  0  0  0
   -9.3950    6.3570    9.7450 N   0  0  0  0  0  0  0  0  0  0  0  0
  -10.5620    5.6840    9.7600 C   0  0  0  0  0  0  0  0  0  0  0  0
  -11.5770    5.6820   10.5960 N   0  0  0  0  0  0  0  0  0  0  0  0
  -12.4690    4.7490   10.1080 N   0  0  0  0  0  0  0  0  0  0  0  0
  -12.0160    4.1880    8.9920 N   0  0  0  0  0  0  0  0  0  0  0  0
  -10.8400    4.7900    8.7610 N   0  0  0  0  0  0  0  0  0  0  0  0
   -9.9950    4.4790    7.6090 C   0  0  0  0  0  0  0  0  0  0  0  0
   -8.6630    5.2070    7.7200 C   0  0  0  0  0  0  0  0  0  0  0  0
  -10.7490    4.8610    6.3730 C   0  0  0  0  0  0  0  0  0  0  0  0
  -11.0350    6.2020    6.1170 C   0  0  0  0  0  0  0  0  0  0  0  0
  -11.7370    6.5580    4.9650 C   0  0  0  0  0  0  0  0  0  0  0  0
  -12.1550    5.5730    4.0710 C   0  0  0  0  0  0  0  0  0  0  0  0
  -11.8700    4.2310    4.3270 C   0  0  0  0  0  0  0  0  0  0  0  0
  -11.1660    3.8760    5.4790 C   0  0  0  0  0  0  0  0  0  0  0  0
  -12.0160    7.8660    4.7150 O   0  0  0  0  0  0  0  0  0  0  0  0
   -6.8990    7.6510    9.7710 O   0  0  0  0  0  0  0  0  0  0  0  0
   -6.8598    3.0639    5.2753 C   0  0  0  0  0  0  0  0  0  0  0  0
   -7.3772    2.2902    4.2950 N   0  0  0  0  0  0  0  0  0  0  0  0
   -8.6215    2.7489    4.0772 C   0  0  0  0  0  0  0  0  0  0  0  0
   -9.5344    2.2877    3.1296 C   0  0  0  0  0  0  0  0  0  0  0  0
  -10.7705    2.9509    3.0296 C   0  0  0  0  0  0  0  0  0  0  0  0
  -11.0549    4.0604    3.8550 C   0  0  0  0  0  0  0  0  0  0  0  0
  -10.1118    4.5072    4.7977 C   0  0  0  0  0  0  0  0  0  0  0  0
   -8.9101    3.8059    4.9044 C   0  0  0  0  0  0  0  0  0  0  0  0
  1  3  4  0
  1 14  4  0
  1  2  1  0
  3  4  4  0
  4  5  4  0
  5  6  4  0
  5 22  1  0
  6  7  1  0
  6 14  4  0
  7  8  1  0
  8  9  4  0
  8 12  4  0
  9 10  4  0
 10 11  4  0
 11 12  4  0
 12 13  1  0
 13 14  1  0
 13 15  1  6
 15 16  4  0
 15 20  4  0
 16 17  4  0
 17 18  4  0
 17 21  1  0
 18 19  4  0
 19 20  4  0
 23 24  4  0
 24 25  4  0
 25 26  4  0
 26 27  4  0
 27 28  4  0
 28 29  4  0
 29 30  4  0
 30 25  4  0
  2 23  4  0
  2 30  4  0
M  END
$$$$

     RDKit          3D

 33 38  0  0  0  0  0  0  0  0999 V2000
   -7.6410    4.9930    6.8080 C   0  0  0  0  0  0  0  0  0  1  0  0
   -7.7310    4.0530    5.7140 C   0  0  0  0  0  0  0  0  0  2  0  0
   -6.4520    5.6300    6.8680 N   0  0  0  0  0  0  0  0  0  0  0  0
   -6.2260    6.5240    7.8670 N   0  0  0  0  0  0  0  0  0  0  0  0
   -7.1930    6.7500    8.7820 C   0  0  0  0  0  0  0  0  0  0  0  0
   -8.4240    6.1170    8.7580 C   0  0  0  0  0  0  0  0  0  0  0  0
   -9.3950    6.3570    9.7450 N   0  0  0  0  0  0  0  0  0  0  0  0
  -10.5620    5.6840    9.7600 C   0  0  0  0  0  0  0  0  0  0  0  0
  -11.5770    5.6820   10.5960 N   0  0  0  0  0  0  0  0  0  0  0  0
  -12.4690    4.7490   10.1080 N   0  0  0  0  0  0  0  0  0  0  0  0
  -12.0160    4.1880    8.9920 N   0  0  0  0  0  0  0  0  0  0  0  0
  -10.8400    4.7900    8.7610 N   0  0  0  0  0  0  0  0  0  0  0  0
   -9.9950    4.4790    7.6090 C   0  0  0  0  0  0  0  0  0  0  0  0
   -8.6630    5.2070    7.7200 C   0  0  0  0  0  0  0  0  0  0  0  0
  -10.7490    4.8610    6.3730 C   0  0  0  0  0  0  0  0  0  0  0  0
  -11.0350    6.2020    6.1170 C   0  0  0  0  0  0  0  0  0  0  0  0
  -11.7370    6.5580    4.9650 C   0  0  0  0  0  0  0  0  0  0  0  0
  -12.1550    5.5730    4.0710 C   0  0  0  0  0  0  0  0  0  0  0  0
  -11.8700    4.2310    4.3270 C   0  0  0  0  0  0  0  0  0  0  0  0
  -11.1660    3.8760    5.4790 C   0  0  0  0  0  0  0  0  0  0  0  0
  -12.0160    7.8660    4.7150 O   0  0  0  0  0  0  0  0  0  0  0  0
   -6.8990    7.6510    9.7710 O   0  0  0  0  0  0  0  0  0  0  0  0
   -6.7984    3.0170    5.5364 C   0  0  0  0  0  0  0  0  0  0  0  0
   -6.9140    2.0422    4.5340 C   0  0  0  0  0  0  0  0  0  1  0  0
   -5.8805    0.9958    4.3929 C   0  0  0  0  0  0  0  0  0  2  0  0
   -5.9195    0.0211    3.4584 N   0  0  0  0  0  0  0  0  0  0  0  0
   -4.8006   -0.6878    3.6984 C   0  0  0  0  0  0  0  0  0  0  0  0
   -4.1282   -0.1255    4.7582 C   0  0  0  0  0  0  0  0  0  0  0  0
   -4.8188    0.9099    5.1641 O   0  0  0  0  0  0  0  0  0  0  0  0
   -8.0227    2.0708    3.6766 C   0  0  0  0  0  0  0  0  0  0  0  0
   -8.9915    3.0667    3.8072 C   0  0  0  0  0  0  0  0  0  0  0  0
   -8.8733    4.0581    4.7943 C   0  0  0  0  0  0  0  0  0  0  0  0
   -9.9252    5.1345    4.8658 C   0  0  0  0  0  0  0  0  0  0  0  0
  1  3  4  0
  1 14  4  0
  1  2  1  0
  3  4  4  0
  4  5  4  0
  5  6  4  0
  5 22  1  0
  6  7  1  0
  6 14  4  0
  7  8  1  0
  8  9  4  0
  8 12  4  0
  9 10  4  0
 10 11  4  0
 11 12  4  0
 12 13  1  0
 13 14  1  0
 13 15  1  6
 15 16  4  0
 15 20  4  0
 16 17  4  0
 17 18  4  0
 17 21  1  0
 18 19  4  0
 19 20  4  0
 23 24  4  0
 24 25  1  0
 25 26  4  0
 26 27  4  0
 27 28  4  0
 28 29  4  0
 24 30  4  0
 30 31  4  0
 31 32  4  0
 32 33  1  0
 29 25  4  0
  2 23  4  0
  2 32  4  0
M  END
$$$$

     RDKit          3D

 30 34  0  0  0  0  0  0  0  0999 V2000
   -7.6410    4.9930    6.8080 C   0  0  0  0  0  0  0  0  0  1  0  0
   -7.7310    4.0530    5.7140 C   0  0  0  0  0  0  0  0  0  2  0  0
   -6.4520    5.6300    6.8680 N   0  0  0  0  0  0  0  0  0  0  0  0
   -6.2260    6.5240    7.8670 N   0  0  0  0  0  0  0  0  0  0  0  0
   -7.1930    6.7500    8.7820 C   0  0  0  0  0  0  0  0  0  0  0  0
   -8.4240    6.1170    8.7580 C   0  0  0  0  0  0  0  0  0  0  0  0
   -9.3950    6.3570    9.7450 N   0  0  0  0  0  0  0  0  0  0  0  0
  -10.5620    5.6840    9.7600 C   0  0  0  0  0  0  0  0  0  0  0  0
  -11.5770    5.6820   10.5960 N   0  0  0  0  0  0  0  0  0  0  0  0
  -12.4690    4.7490   10.1080 N   0  0  0  0  0  0  0  0  0  0  0  0
  -12.0160    4.1880    8.9920 N   0  0  0  0  0  0  0  0  0  0  0  0
  -10.8400    4.7900    8.7610 N   0  0  0  0  0  0  0  0  0  0  0  0
   -9.9950    4.4790    7.6090 C   0  0  0  0  0  0  0  0  0  0  0  0
   -8.6630    5.2070    7.7200 C   0  0  0  0  0  0  0  0  0  0  0  0
  -10.7490    4.8610    6.3730 C   0  0  0  0  0  0  0  0  0  0  0  0
  -11.0350    6.2020    6.1170 C   0  0  0  0  0  0  0  0  0  0  0  0
  -11.7370    6.5580    4.9650 C   0  0  0  0  0  0  0  0  0  0  0  0
  -12.1550    5.5730    4.0710 C   0  0  0  0  0  0  0  0  0  0  0  0
  -11.8700    4.2310    4.3270 C   0  0  0  0  0  0  0  0  0  0  0  0
  -11.1660    3.8760    5.4790 C   0  0  0  0  0  0  0  0  0  0  0  0
  -12.0160    7.8660    4.7150 O   0  0  0  0  0  0  0  0  0  0  0  0
   -6.8990    7.6510    9.7710 O   0  0  0  0  0  0  0  0  0  0  0  0
   -9.0355    3.9516    4.9424 C   0  0  0  0  0  0  0  0  0  0  0  0
  -10.1437    4.9422    5.1868 C   0  0  0  0  0  0  0  0  0  0  0  0
   -9.2310    2.9621    3.9579 C   0  0  0  0  0  0  0  0  0  0  0  0
   -8.2170    2.0486    3.6506 C   0  0  0  0  0  0  0  0  0  0  0  0
   -8.4447    0.9868    2.6144 C   0  0  0  0  0  0  0  0  0  0  0  0
   -7.0191    2.0831    4.3695 C   0  0  0  0  0  0  0  0  0  0  0  0
   -6.8191    3.0329    5.3790 C   0  0  0  0  0  0  0  0  0  0  0  0
   -5.6214    3.0320    6.0942 O   0  0  0  0  0  0  0  0  0  0  0  0
  1  3  4  0
  1 14  4  0
  1  2  1  0
  3  4  4  0
  4  5  4  0
  5  6  4  0
  5 22  1  0
  6  7  1  0
  6 14  4  0
  7  8  1  0
  8  9  4  0
  8 12  4  0
  9 10  4  0
 10 11  4  0
 11 12  4  0
 12 13  1  0
 13 14  1  0
 13 15  1  6
 15 16  4  0
 15 20  4  0
 16 17  4  0
 17 18  4  0
 17 21  1  0
 18 19  4  0
 19 20  4  0
 23 24  1  0
 23 25  4  0
 25 26  4  0
 26 27  1  0
 26 28  4  0
 28 29  4  0
 29 30  1  0
  2 23  4  0
  2 29  4  0
M  END
$$$$

     RDKit          3D

 40 46  0  0  0  0  0  0  0  0999 V2000
   -7.6410    4.9930    6.8080 C   0  0  0  0  0  0  0  0  0  1  0  0
   -7.7310    4.0530    5.7140 C   0  0  0  0  0  0  0  0  0  2  0  0
   -6.4520    5.6300    6.8680 N   0  0  0  0  0  0  0  0  0  0  0  0
   -6.2260    6.5240    7.8670 N   0  0  0  0  0  0  0  0  0  0  0  0
   -7.1930    6.7500    8.7820 C   0  0  0  0  0  0  0  0  0  0  0  0
   -8.4240    6.1170    8.7580 C   0  0  0  0  0  0  0  0  0  0  0  0
   -9.3950    6.3570    9.7450 N   0  0  0  0  0  0  0  0  0  0  0  0
  -10.5620    5.6840    9.7600 C   0  0  0  0  0  0  0  0  0  0  0  0
  -11.5770    5.6820   10.5960 N   0  0  0  0  0  0  0  0  0  0  0  0
  -12.4690    4.7490   10.1080 N   0  0  0  0  0  0  0  0  0  0  0  0
  -12.0160    4.1880    8.9920 N   0  0  0  0  0  0  0  0  0  0  0  0
  -10.8400    4.7900    8.7610 N   0  0  0  0  0  0  0  0  0  0  0  0
   -9.9950    4.4790    7.6090 C   0  0  0  0  0  0  0  0  0  0  0  0
   -8.6630    5.2070    7.7200 C   0  0  0  0  0  0  0  0  0  0  0  0
  -10.7490    4.8610    6.3730 C   0  0  0  0  0  0  0  0  0  0  0  0
  -11.0350    6.2020    6.1170 C   0  0  0  0  0  0  0  0  0  0  0  0
  -11.7370    6.5580    4.9650 C   0  0  0  0  0  0  0  0  0  0  0  0
  -12.1550    5.5730    4.0710 C   0  0  0  0  0  0  0  0  0  0  0  0
  -11.8700    4.2310    4.3270 C   0  0  0  0  0  0  0  0  0  0  0  0
  -11.1660    3.8760    5.4790 C   0  0  0  0  0  0  0  0  0  0  0  0
  -12.0160    7.8660    4.7150 O   0  0  0  0  0  0  0  0  0  0  0  0
   -6.8990    7.6510    9.7710 O   0  0  0  0  0  0  0  0  0  0  0  0
   -8.7103    4.1545    4.6383 C   0  0  0  0  0  0  0  0  0  0  0  0
   -9.7295    5.2403    4.5066 C   0  0  0  0  0  0  0  0  0  0  0  0
   -8.4953    2.8984    3.4971 S   0  0  0  0  0  0  0  0  0  0  0  0
   -7.2373    2.2524    4.3950 C   0  0  0  0  0  0  0  0  0  0  0  0
   -6.4676    1.1709    4.1903 N   0  0  0  0  0  0  0  0  0  0  0  0
   -5.6638    1.1801    5.2887 C   0  0  0  0  0  0  0  0  0  1  0  0
   -4.6258    0.1521    5.5135 C   0  0  0  0  0  0  0  0  0  2  0  0
   -3.3615    0.4958    6.0230 C   0  0  0  0  0  0  0  0  0  0  0  0
   -2.3881   -0.4888    6.2185 C   0  0  0  0  0  0  0  0  0  0  0  0
   -2.6628   -1.8203    5.8955 C   0  0  0  0  0  0  0  0  0  0  0  0
   -1.7172   -2.7733    6.0846 F   0  0  0  0  0  0  0  0  0  0  0  0
   -3.9094   -2.1673    5.3680 C   0  0  0  0  0  0  0  0  0  0  0  0
   -4.8853   -1.1855    5.1707 C   0  0  0  0  0  0  0  0  0  0  0  0
   -6.0025    2.2524    6.1366 C   0  0  0  0  0  0  0  0  0  0  0  0
   -5.4997    2.5299    7.5319 C   0  0  0  0  0  0  0  0  0  0  0  0
   -5.5016    1.3099    8.3471 C   0  0  0  0  0  0  0  0  0  0  0  0
   -5.5027    0.3475    8.9898 N   0  0  0  0  0  0  0  0  0  0  0  0
   -6.9866    2.9210    5.5068 N   0  0  0  0  0  0  0  0  0  0  0  0
  1  3  4  0
  1 14  4  0
  1  2  1  0
  3  4  4  0
  4  5  4  0
  5  6  4  0
  5 22  1  0
  6  7  1  0
  6 14  4  0
  7  8  1  0
  8  9  4  0
  8 12  4  0
  9 10  4  0
 10 11  4  0
 11 12  4  0
 12 13  1  0
 13 14  1  0
 13 15  1  6
 15 16  4  0
 15 20  4  0
 16 17  4  0
 17 18  4  0
 17 21  1  0
 18 19  4  0
 19 20  4  0
 23 24  1  0
 23 25  4  0
 25 26  4  0
 26 27  4  0
 27 28  4  0
 28 29  1  0
 29 30  4  0
 30 31  4  0
 31 32  4  0
 32 33  1  0
 32 34  4  0
 34 35  4  0
 28 36  4  0
 36 37  1  0
 37 38  1  0
 38 39  3  0
 36 40  4  0
 40 26  4  0
 35 29  4  0
  2 23  4  0
  2 40  4  0
M  END
$$$$

     RDKit          3D

 31 35  0  0  0  0  0  0  0  0999 V2000
   -7.6410    4.9930    6.8080 C   0  0  0  0  0  0  0  0  0  1  0  0
   -7.7310    4.0530    5.7140 C   0  0  0  0  0  0  0  0  0  2  0  0
   -6.4520    5.6300    6.8680 N   0  0  0  0  0  0  0  0  0  0  0  0
   -6.2260    6.5240    7.8670 N   0  0  0  0  0  0  0  0  0  0  0  0
   -7.1930    6.7500    8.7820 C   0  0  0  0  0  0  0  0  0  0  0  0
   -8.4240    6.1170    8.7580 C   0  0  0  0  0  0  0  0  0  0  0  0
   -9.3950    6.3570    9.7450 N   0  0  0  0  0  0  0  0  0  0  0  0
  -10.5620    5.6840    9.7600 C   0  0  0  0  0  0  0  0  0  0  0  0
  -11.5770    5.6820   10.5960 N   0  0  0  0  0  0  0  0  0  0  0  0
  -12.4690    4.7490   10.1080 N   0  0  0  0  0  0  0  0  0  0  0  0
  -12.0160    4.1880    8.9920 N   0  0  0  0  0  0  0  0  0  0  0  0
  -10.8400    4.7900    8.7610 N   0  0  0  0  0  0  0  0  0  0  0  0
   -9.9950    4.4790    7.6090 C   0  0  0  0  0  0  0  0  0  0  0  0
   -8.6630    5.2070    7.7200 C   0  0  0  0  0  0  0  0  0  0  0  0
  -10.7490    4.8610    6.3730 C   0  0  0  0  0  0  0  0  0  0  0  0
  -11.0350    6.2020    6.1170 C   0  0  0  0  0  0  0  0  0  0  0  0
  -11.7370    6.5580    4.9650 C   0  0  0  0  0  0  0  0  0  0  0  0
  -12.1550    5.5730    4.0710 C   0  0  0  0  0  0  0  0  0  0  0  0
  -11.8700    4.2310    4.3270 C   0  0  0  0  0  0  0  0  0  0  0  0
  -11.1660    3.8760    5.4790 C   0  0  0  0  0  0  0  0  0  0  0  0
  -12.0160    7.8660    4.7150 O   0  0  0  0  0  0  0  0  0  0  0  0
   -6.8990    7.6510    9.7710 O   0  0  0  0  0  0  0  0  0  0  0  0
   -7.2816    2.7057    5.8580 C   0  0  0  0  0  0  0  0  0  0  0  0
   -7.5011    1.7320    4.8811 C   0  0  0  0  0  0  0  0  0  0  0  0
   -8.2140    2.0465    3.7227 C   0  0  0  0  0  0  0  0  0  0  0  0
   -8.6998    3.3501    3.5211 C   0  0  0  0  0  0  0  0  0  0  0  0
   -9.4646    3.6654    2.2639 C   0  0  0  0  0  0  0  0  0  0  0  0
   -8.5066    4.3331    4.5223 C   0  0  0  0  0  0  0  0  0  0  0  0
   -8.9893    5.6727    4.3380 N   0  0  0  0  0  0  0  0  0  0  0  0
  -10.3899    6.0054    4.5881 C   0  0  0  0  0  0  0  0  0  0  0  0
  -10.8384    7.1347    3.6691 C   0  0  0  0  0  0  0  0  0  0  0  0
  1  3  4  0
  1 14  4  0
  1  2  1  0
  3  4  4  0
  4  5  4  0
  5  6  4  0
  5 22  1  0
  6  7  1  0
  6 14  4  0
  7  8  1  0
  8  9  4  0
  8 12  4  0
  9 10  4  0
 10 11  4  0
 11 12  4  0
 12 13  1  0
 13 14  1  0
 13 15  1  6
 15 16  4  0
 15 20  4  0
 16 17  4  0
 17 18  4  0
 17 21  1  0
 18 19  4  0
 19 20  4  0
 23 24  4  0
 24 25  4  0
 25 26  4  0
 26 27  1  0
 26 28  4  0
 28 29  1  0
 29 30  1  0
 30 31  1  0
  2 23  4  0
  2 28  4  0
M  END
$$$$

     RDKit          3D

 41 46  0  0  0  0  0  0  0  0999 V2000
   -7.6410    4.9930    6.8080 C   0  0  0  0  0  0  0  0  0  1  0  0
   -7.7310    4.0530    5.7140 C   0  0  0  0  0  0  0  0  0  2  0  0
   -6.4520    5.6300    6.8680 N   0  0  0  0  0  0  0  0  0  0  0  0
   -6.2260    6.5240    7.8670 N   0  0  0  0  0  0  0  0  0  0  0  0
   -7.1930    6.7500    8.7820 C   0  0  0  0  0  0  0  0  0  0  0  0
   -8.4240    6.1170    8.7580 C   0  0  0  0  0  0  0  0  0  0  0  0
   -9.3950    6.3570    9.7450 N   0  0  0  0  0  0  0  0  0  0  0  0
  -10.5620    5.6840    9.7600 C   0  0  0  0  0  0  0  0  0  0  0  0
  -11.5770    5.6820   10.5960 N   0  0  0  0  0  0  0  0  0  0  0  0
  -12.4690    4.7490   10.1080 N   0  0  0  0  0  0  0  0  0  0  0  0
  -12.0160    4.1880    8.9920 N   0  0  0  0  0  0  0  0  0  0  0  0
  -10.8400    4.7900    8.7610 N   0  0  0  0  0  0  0  0  0  0  0  0
   -9.9950    4.4790    7.6090 C   0  0  0  0  0  0  0  0  0  0  0  0
   -8.6630    5.2070    7.7200 C   0  0  0  0  0  0  0  0  0  0  0  0
  -10.7490    4.8610    6.3730 C   0  0  0  0  0  0  0  0  0  0  0  0
  -11.0350    6.2020    6.1170 C   0  0  0  0  0  0  0  0  0  0  0  0
  -11.7370    6.5580    4.9650 C   0  0  0  0  0  0  0  0  0  0  0  0
  -12.1550    5.5730    4.0710 C   0  0  0  0  0  0  0  0  0  0  0  0
  -11.8700    4.2310    4.3270 C   0  0  0  0  0  0  0  0  0  0  0  0
  -11.1660    3.8760    5.4790 C   0  0  0  0  0  0  0  0  0  0  0  0
  -12.0160    7.8660    4.7150 O   0  0  0  0  0  0  0  0  0  0  0  0
   -6.8990    7.6510    9.7710 O   0  0  0  0  0  0  0  0  0  0  0  0
   -6.9277    3.0244    5.3822 N   0  0  0  0  0  0  0  0  0  0  0  0
   -7.4354    2.3384    4.3685 N   0  0  0  0  0  0  0  0  0  0  0  0
   -8.6153    2.9092    4.0652 C   0  0  0  0  0  0  0  0  0  0  0  0
   -9.6777    2.3460    2.7308 S   0  0  0  0  0  0  0  0  0  0  0  0
   -8.8084    3.3221    1.4591 C   0  0  0  0  0  0  0  0  0  0  0  0
   -9.5579    3.2263    0.1595 C   0  0  0  0  0  0  0  0  0  0  0  0
   -9.1890    2.3715   -0.6922 O   0  0  0  0  0  0  0  0  0  0  0  0
  -10.7233    4.0252   -0.1075 N   0  0  0  0  0  0  0  0  0  0  0  0
  -11.1737    5.0671    0.7699 C   0  0  0  0  0  0  0  0  0  0  0  0
  -12.3373    4.8744    1.5290 C   0  0  0  0  0  0  0  0  0  0  0  0
  -12.7541    5.8434    2.4451 C   0  0  0  0  0  0  0  0  0  0  0  0
  -14.2016    5.5443    3.4023 Cl  0  0  0  0  0  0  0  0  0  0  0  0
  -12.0254    7.0380    2.5763 C   0  0  0  0  0  0  0  0  0  0  0  0
  -12.5162    8.2859    3.7145 Cl  0  0  0  0  0  0  0  0  0  0  0  0
  -10.8990    7.2588    1.7765 C   0  0  0  0  0  0  0  0  0  0  0  0
  -10.4655    6.2781    0.8779 C   0  0  0  0  0  0  0  0  0  0  0  0
   -9.0382    6.5919   -0.1049 Cl  0  0  0  0  0  0  0  0  0  0  0  0
   -8.8837    3.9551    4.8686 N   0  0  0  0  0  0  0  0  0  0  0  0
  -10.0141    4.8771    4.7628 C   0  0  0  0  0  0  0  0  0  0  0  0
  1  3  4  0
  1 14  4  0
  1  2  1  0
  3  4  4  0
  4  5  4  0
  5  6  4  0
  5 22  1  0
  6  7  1  0
  6 14  4  0
  7  8  1  0
  8  9  4  0
  8 12  4  0
  9 10  4  0
 10 11  4  0
 11 12  4  0
 12 13  1  0
 13 14  1  0
 13 15  1  6
 15 16  4  0
 15 20  4  0
 16 17  4  0
 17 18  4  0
 17 21  1  0
 18 19  4  0
 19 20  4  0
 23 24  4  0
 24 25  4  0
 25 26  1  0
 26 27  1  0
 27 28  1  0
 28 29  2  0
 28 30  1  0
 30 31  1  0
 31 32  4  0
 32 33  4  0
 33 34  1  0
 33 35  4  0
 35 36  1  0
 35 37  4  0
 37 38  4  0
 38 39  1  0
 25 40  4  0
 40 41  1  0
 38 31  4  0
  2 23  4  0
  2 40  4  0
M  END
$$$$

     RDKit          3D

 41 46  0  0  0  0  0  0  0  0999 V2000
   -7.6410    4.9930    6.8080 C   0  0  0  0  0  0  0  0  0  1  0  0
   -7.7310    4.0530    5.7140 C   0  0  0  0  0  0  0  0  0  2  0  0
   -6.4520    5.6300    6.8680 N   0  0  0  0  0  0  0  0  0  0  0  0
   -6.2260    6.5240    7.8670 N   0  0  0  0  0  0  0  0  0  0  0  0
   -7.1930    6.7500    8.7820 C   0  0  0  0  0  0  0  0  0  0  0  0
   -8.4240    6.1170    8.7580 C   0  0  0  0  0  0  0  0  0  0  0  0
   -9.3950    6.3570    9.7450 N   0  0  0  0  0  0  0  0  0  0  0  0
  -10.5620    5.6840    9.7600 C   0  0  0  0  0  0  0  0  0  0  0  0
  -11.5770    5.6820   10.5960 N   0  0  0  0  0  0  0  0  0  0  0  0
  -12.4690    4.7490   10.1080 N   0  0  0  0  0  0  0  0  0  0  0  0
  -12.0160    4.1880    8.9920 N   0  0  0  0  0  0  0  0  0  0  0  0
  -10.8400    4.7900    8.7610 N   0  0  0  0  0  0  0  0  0  0  0  0
   -9.9950    4.4790    7.6090 C   0  0  0  0  0  0  0  0  0  0  0  0
   -8.6630    5.2070    7.7200 C   0  0  0  0  0  0  0  0  0  0  0  0
  -10.7490    4.8610    6.3730 C   0  0  0  0  0  0  0  0  0  0  0  0
  -11.0350    6.2020    6.1170 C   0  0  0  0  0  0  0  0  0  0  0  0
  -11.7370    6.5580    4.9650 C   0  0  0  0  0  0  0  0  0  0  0  0
  -12.1550    5.5730    4.0710 C   0  0  0  0  0  0  0  0  0  0  0  0
  -11.8700    4.2310    4.3270 C   0  0  0  0  0  0  0  0  0  0  0  0
  -11.1660    3.8760    5.4790 C   0  0  0  0  0  0  0  0  0  0  0  0
  -12.0160    7.8660    4.7150 O   0  0  0  0  0  0  0  0  0  0  0  0
   -6.8990    7.6510    9.7710 O   0  0  0  0  0  0  0  0  0  0  0  0
   -6.9440    3.0023    5.4092 N   0  0  0  0  0  0  0  0  0  0  0  0
   -7.4476    2.3200    4.3908 N   0  0  0  0  0  0  0  0  0  0  0  0
   -8.6086    2.9144    4.0585 C   0  0  0  0  0  0  0  0  0  0  0  0
   -9.6549    2.3537    2.7142 S   0  0  0  0  0  0  0  0  0  0  0  0
   -8.7708    3.3355    1.4577 C   0  0  0  0  0  0  0  0  0  0  0  0
   -9.2540    2.9603    0.0865 C   0  0  0  0  0  0  0  0  0  0  0  0
  -10.4399    3.2385   -0.2361 O   0  0  0  0  0  0  0  0  0  0  0  0
   -8.3881    2.3586   -0.8897 N   0  0  0  0  0  0  0  0  0  0  0  0
   -7.1899    1.6331   -0.5678 C   0  0  0  0  0  0  0  0  0  0  0  0
   -7.1902    0.6868    0.4705 C   0  0  0  0  0  0  0  0  0  0  0  0
   -6.0300   -0.0287    0.7837 C   0  0  0  0  0  0  0  0  0  0  0  0
   -6.0761   -1.1865    2.1063 Cl  0  0  0  0  0  0  0  0  0  0  0  0
   -4.8576    0.1836    0.0413 C   0  0  0  0  0  0  0  0  0  0  0  0
   -3.3779   -0.6951    0.4024 Cl  0  0  0  0  0  0  0  0  0  0  0  0
   -4.8590    1.1060   -1.0102 C   0  0  0  0  0  0  0  0  0  0  0  0
   -6.0177    1.8258   -1.3218 C   0  0  0  0  0  0  0  0  0  0  0  0
   -5.9633    2.9924   -2.6368 Cl  0  0  0  0  0  0  0  0  0  0  0  0
   -8.8659    3.9767    4.8446 N   0  0  0  0  0  0  0  0  0  0  0  0
   -9.9942    4.9014    4.7506 C   0  0  0  0  0  0  0  0  0  0  0  0
  1  3  4  0
  1 14  4  0
  1  2  1  0
  3  4  4  0
  4  5  4  0
  5  6  4  0
  5 22  1  0
  6  7  1  0
  6 14  4  0
  7  8  1  0
  8  9  4  0
  8 12  4  0
  9 10  4  0
 10 11  4  0
 11 12  4  0
 12 13  1  0
 13 14  1  0
 13 15  1  6
 15 16  4  0
 15 20  4  0
 16 17  4  0
 17 18  4  0
 17 21  1  0
 18 19  4  0
 19 20  4  0
 23 24  4  0
 24 25  4  0
 25 26  1  0
 26 27  1  0
 27 28  1  0
 28 29  2  0
 28 30  1  0
 30 31  1  0
 31 32  4  0
 32 33  4  0
 33 34  1  0
 33 35  4  0
 35 36  1  0
 35 37  4  0
 37 38  4  0
 38 39  1  0
 25 40  4  0
 40 41  1  0
 38 31  4  0
  2 23  4  0
  2 40  4  0
M  END
$$$$

     RDKit          3D

 41 46  0  0  0  0  0  0  0  0999 V2000
   -7.6410    4.9930    6.8080 C   0  0  0  0  0  0  0  0  0  1  0  0
   -7.7310    4.0530    5.7140 C   0  0  0  0  0  0  0  0  0  2  0  0
   -6.4520    5.6300    6.8680 N   0  0  0  0  0  0  0  0  0  0  0  0
   -6.2260    6.5240    7.8670 N   0  0  0  0  0  0  0  0  0  0  0  0
   -7.1930    6.7500    8.7820 C   0  0  0  0  0  0  0  0  0  0  0  0
   -8.4240    6.1170    8.7580 C   0  0  0  0  0  0  0  0  0  0  0  0
   -9.3950    6.3570    9.7450 N   0  0  0  0  0  0  0  0  0  0  0  0
  -10.5620    5.6840    9.7600 C   0  0  0  0  0  0  0  0  0  0  0  0
  -11.5770    5.6820   10.5960 N   0  0  0  0  0  0  0  0  0  0  0  0
  -12.4690    4.7490   10.1080 N   0  0  0  0  0  0  0  0  0  0  0  0
  -12.0160    4.1880    8.9920 N   0  0  0  0  0  0  0  0  0  0  0  0
  -10.8400    4.7900    8.7610 N   0  0  0  0  0  0  0  0  0  0  0  0
   -9.9950    4.4790    7.6090 C   0  0  0  0  0  0  0  0  0  0  0  0
   -8.6630    5.2070    7.7200 C   0  0  0  0  0  0  0  0  0  0  0  0
  -10.7490    4.8610    6.3730 C   0  0  0  0  0  0  0  0  0  0  0  0
  -11.0350    6.2020    6.1170 C   0  0  0  0  0  0  0  0  0  0  0  0
  -11.7370    6.5580    4.9650 C   0  0  0  0  0  0  0  0  0  0  0  0
  -12.1550    5.5730    4.0710 C   0  0  0  0  0  0  0  0  0  0  0  0
  -11.8700    4.2310    4.3270 C   0  0  0  0  0  0  0  0  0  0  0  0
  -11.1660    3.8760    5.4790 C   0  0  0  0  0  0  0  0  0  0  0  0
  -12.0160    7.8660    4.7150 O   0  0  0  0  0  0  0  0  0  0  0  0
   -6.8990    7.6510    9.7710 O   0  0  0  0  0  0  0  0  0  0  0  0
   -6.9413    3.0061    5.4038 N   0  0  0  0  0  0  0  0  0  0  0  0
   -7.4495    2.3196    4.3903 N   0  0  0  0  0  0  0  0  0  0  0  0
   -8.6172    2.9061    4.0681 C   0  0  0  0  0  0  0  0  0  0  0  0
   -9.6783    2.3360    2.7397 S   0  0  0  0  0  0  0  0  0  0  0  0
  -10.6374    1.2345    3.8285 C   0  0  0  0  0  0  0  0  0  0  0  0
  -11.7183    0.5666    3.0390 C   0  0  0  0  0  0  0  0  0  0  0  0
  -12.6383    1.2677    2.5358 O   0  0  0  0  0  0  0  0  0  0  0  0
  -11.7241   -0.8596    2.8785 N   0  0  0  0  0  0  0  0  0  0  0  0
  -12.6774   -1.5386    2.0492 C   0  0  0  0  0  0  0  0  0  0  0  0
  -13.4892   -2.5300    2.6171 C   0  0  0  0  0  0  0  0  0  0  0  0
  -14.4306   -3.2125    1.8393 C   0  0  0  0  0  0  0  0  0  0  0  0
  -15.4401   -4.4342    2.6012 Cl  0  0  0  0  0  0  0  0  0  0  0  0
  -14.5542   -2.9147    0.4727 C   0  0  0  0  0  0  0  0  0  0  0  0
  -15.7228   -3.7508   -0.5410 Cl  0  0  0  0  0  0  0  0  0  0  0  0
  -13.7267   -1.9460   -0.1049 C   0  0  0  0  0  0  0  0  0  0  0  0
  -12.7845   -1.2613    0.6710 C   0  0  0  0  0  0  0  0  0  0  0  0
  -11.7035   -0.1263   -0.1291 Cl  0  0  0  0  0  0  0  0  0  0  0  0
   -8.8721    3.9698    4.8528 N   0  0  0  0  0  0  0  0  0  0  0  0
   -9.9970    4.8979    4.7527 C   0  0  0  0  0  0  0  0  0  0  0  0
  1  3  4  0
  1 14  4  0
  1  2  1  0
  3  4  4  0
  4  5  4  0
  5  6  4  0
  5 22  1  0
  6  7  1  0
  6 14  4  0
  7  8  1  0
  8  9  4  0
  8 12  4  0
  9 10  4  0
 10 11  4  0
 11 12  4  0
 12 13  1  0
 13 14  1  0
 13 15  1  6
 15 16  4  0
 15 20  4  0
 16 17  4  0
 17 18  4  0
 17 21  1  0
 18 19  4  0
 19 20  4  0
 23 24  4  0
 24 25  4  0
 25 26  1  0
 26 27  1  0
 27 28  1  0
 28 29  2  0
 28 30  1  0
 30 31  1  0
 31 32  4  0
 32 33  4  0
 33 34  1  0
 33 35  4  0
 35 36  1  0
 35 37  4  0
 37 38  4  0
 38 39  1  0
 25 40  4  0
 40 41  1  0
 38 31  4  0
  2 23  4  0
  2 40  4  0
M  END
$$$$

     RDKit          3D

 46 52  0  0  0  0  0  0  0  0999 V2000
   -7.6410    4.9930    6.8080 C   0  0  0  0  0  0  0  0  0  1  0  0
   -7.7310    4.0530    5.7140 C   0  0  0  0  0  0  0  0  0  2  0  0
   -6.4520    5.6300    6.8680 N   0  0  0  0  0  0  0  0  0  0  0  0
   -6.2260    6.5240    7.8670 N   0  0  0  0  0  0  0  0  0  0  0  0
   -7.1930    6.7500    8.7820 C   0  0  0  0  0  0  0  0  0  0  0  0
   -8.4240    6.1170    8.7580 C   0  0  0  0  0  0  0  0  0  0  0  0
   -9.3950    6.3570    9.7450 N   0  0  0  0  0  0  0  0  0  0  0  0
  -10.5620    5.6840    9.7600 C   0  0  0  0  0  0  0  0  0  0  0  0
  -11.5770    5.6820   10.5960 N   0  0  0  0  0  0  0  0  0  0  0  0
  -12.4690    4.7490   10.1080 N   0  0  0  0  0  0  0  0  0  0  0  0
  -12.0160    4.1880    8.9920 N   0  0  0  0  0  0  0  0  0  0  0  0
  -10.8400    4.7900    8.7610 N   0  0  0  0  0  0  0  0  0  0  0  0
   -9.9950    4.4790    7.6090 C   0  0  0  0  0  0  0  0  0  0  0  0
   -8.6630    5.2070    7.7200 C   0  0  0  0  0  0  0  0  0  0  0  0
  -10.7490    4.8610    6.3730 C   0  0  0  0  0  0  0  0  0  0  0  0
  -11.0350    6.2020    6.1170 C   0  0  0  0  0  0  0  0  0  0  0  0
  -11.7370    6.5580    4.9650 C   0  0  0  0  0  0  0  0  0  0  0  0
  -12.1550    5.5730    4.0710 C   0  0  0  0  0  0  0  0  0  0  0  0
  -11.8700    4.2310    4.3270 C   0  0  0  0  0  0  0  0  0  0  0  0
  -11.1660    3.8760    5.4790 C   0  0  0  0  0  0  0  0  0  0  0  0
  -12.0160    7.8660    4.7150 O   0  0  0  0  0  0  0  0  0  0  0  0
   -6.8990    7.6510    9.7710 O   0  0  0  0  0  0  0  0  0  0  0  0
   -6.8577    3.0786    5.3755 N   0  0  0  0  0  0  0  0  0  0  0  0
   -7.3354    2.3754    4.3557 N   0  0  0  0  0  0  0  0  0  0  0  0
   -8.5423    2.8917    4.0539 C   0  0  0  0  0  0  0  0  0  0  0  0
   -9.5656    2.3200    2.6963 S   0  0  0  0  0  0  0  0  0  0  0  0
   -8.5302    3.0515    1.3666 C   0  0  0  0  0  0  0  0  0  0  0  0
   -7.7469    1.9401    0.7107 C   0  0  0  0  0  0  0  0  0  0  0  0
   -6.5015    2.0707    0.5514 O   0  0  0  0  0  0  0  0  0  0  0  0
   -8.4173    0.7541    0.2464 N   0  0  0  0  0  0  0  0  0  0  0  0
   -7.7486   -0.4769   -0.0771 C   0  0  0  0  0  0  0  0  0  0  0  0
   -8.2747   -1.3026   -1.0808 C   0  0  0  0  0  0  0  0  0  0  0  0
   -7.6742   -2.5275   -1.3744 C   0  0  0  0  0  0  0  0  0  0  0  0
   -6.5513   -2.9492   -0.6587 C   0  0  0  0  0  0  0  0  0  0  0  0
   -6.0227   -2.1449    0.3674 C   0  0  0  0  0  0  0  0  0  0  0  0
   -4.9183   -2.5379    1.1386 O   0  0  0  0  0  0  0  0  0  0  0  0
   -4.2894   -3.8151    1.0516 C   0  0  0  0  0  0  0  0  0  0  0  0
   -6.6241   -0.9106    0.6483 C   0  0  0  0  0  0  0  0  0  0  0  0
   -9.3968    3.8600    0.4117 C   0  0  0  0  0  0  0  0  0  0  0  0
   -9.5410    3.5493   -0.9602 C   0  0  0  0  0  0  0  0  0  0  0  0
  -10.3456    4.3394   -1.7871 C   0  0  0  0  0  0  0  0  0  0  0  0
  -11.0061    5.4534   -1.2680 C   0  0  0  0  0  0  0  0  0  0  0  0
  -10.8564    5.7862    0.0794 C   0  0  0  0  0  0  0  0  0  0  0  0
  -10.0547    5.0004    0.9118 C   0  0  0  0  0  0  0  0  0  0  0  0
   -8.8528    3.9086    4.8742 N   0  0  0  0  0  0  0  0  0  0  0  0
   -9.9827    4.7398    4.8119 N   0  0  0  0  0  0  0  0  0  0  0  0
  1  3  4  0
  1 14  4  0
  1  2  1  0
  3  4  4  0
  4  5  4  0
  5  6  4  0
  5 22  1  0
  6  7  1  0
  6 14  4  0
  7  8  1  0
  8  9  4  0
  8 12  4  0
  9 10  4  0
 10 11  4  0
 11 12  4  0
 12 13  1  0
 13 14  1  0
 13 15  1  6
 15 16  4  0
 15 20  4  0
 16 17  4  0
 17 18  4  0
 17 21  1  0
 18 19  4  0
 19 20  4  0
 23 24  4  0
 24 25  4  0
 25 26  1  0
 26 27  1  0
 27 28  1  0
 28 29  2  0
 28 30  1  0
 30 31  1  0
 31 32  4  0
 32 33  4  0
 33 34  4  0
 34 35  4  0
 35 36  1  0
 36 37  1  0
 35 38  4  0
 27 39  1  0
 39 40  4  0
 40 41  4  0
 41 42  4  0
 42 43  4  0
 43 44  4  0
 25 45  4  0
 45 46  1  0
 38 31  4  0
 44 39  4  0
  2 23  4  0
  2 45  4  0
M  END
$$$$

     RDKit          3D

 49 56  0  0  0  0  0  0  0  0999 V2000
   -7.6410    4.9930    6.8080 C   0  0  0  0  0  0  0  0  0  1  0  0
   -7.7310    4.0530    5.7140 C   0  0  0  0  0  0  0  0  0  2  0  0
   -6.4520    5.6300    6.8680 N   0  0  0  0  0  0  0  0  0  0  0  0
   -6.2260    6.5240    7.8670 N   0  0  0  0  0  0  0  0  0  0  0  0
   -7.1930    6.7500    8.7820 C   0  0  0  0  0  0  0  0  0  0  0  0
   -8.4240    6.1170    8.7580 C   0  0  0  0  0  0  0  0  0  0  0  0
   -9.3950    6.3570    9.7450 N   0  0  0  0  0  0  0  0  0  0  0  0
  -10.5620    5.6840    9.7600 C   0  0  0  0  0  0  0  0  0  0  0  0
  -11.5770    5.6820   10.5960 N   0  0  0  0  0  0  0  0  0  0  0  0
  -12.4690    4.7490   10.1080 N   0  0  0  0  0  0  0  0  0  0  0  0
  -12.0160    4.1880    8.9920 N   0  0  0  0  0  0  0  0  0  0  0  0
  -10.8400    4.7900    8.7610 N   0  0  0  0  0  0  0  0  0  0  0  0
   -9.9950    4.4790    7.6090 C   0  0  0  0  0  0  0  0  0  0  0  0
   -8.6630    5.2070    7.7200 C   0  0  0  0  0  0  0  0  0  0  0  0
  -10.7490    4.8610    6.3730 C   0  0  0  0  0  0  0  0  0  0  0  0
  -11.0350    6.2020    6.1170 C   0  0  0  0  0  0  0  0  0  0  0  0
  -11.7370    6.5580    4.9650 C   0  0  0  0  0  0  0  0  0  0  0  0
  -12.1550    5.5730    4.0710 C   0  0  0  0  0  0  0  0  0  0  0  0
  -11.8700    4.2310    4.3270 C   0  0  0  0  0  0  0  0  0  0  0  0
  -11.1660    3.8760    5.4790 C   0  0  0  0  0  0  0  0  0  0  0  0
  -12.0160    7.8660    4.7150 O   0  0  0  0  0  0  0  0  0  0  0  0
   -6.8990    7.6510    9.7710 O   0  0  0  0  0  0  0  0  0  0  0  0
   -6.8663    3.0591    5.4153 N   0  0  0  0  0  0  0  0  0  0  0  0
   -7.3088    2.3792    4.3686 N   0  0  0  0  0  0  0  0  0  0  0  0
   -8.4862    2.9274    4.0172 C   0  0  0  0  0  0  0  0  0  0  0  0
   -9.4390    2.3801    2.5979 S   0  0  0  0  0  0  0  0  0  0  0  0
  -10.5003    1.2410    3.5559 C   0  0  0  0  0  0  0  0  0  0  0  0
   -9.7045    0.1199    4.1623 C   0  0  0  0  0  0  0  0  0  0  0  0
   -9.6167    0.0581    5.4168 O   0  0  0  0  0  0  0  0  0  0  0  0
   -9.0328   -0.8979    3.3187 C   0  0  0  0  0  0  0  0  0  0  0  0
   -9.1110   -0.9788    1.9414 C   0  0  0  0  0  0  0  0  0  0  0  0
   -8.3051   -2.0299    1.5579 C   0  0  0  0  0  0  0  0  0  0  0  0
   -8.1377   -2.4622    0.1315 C   0  0  0  0  0  0  0  0  0  0  0  0
   -7.7503   -2.6249    2.6445 N   0  0  0  0  0  0  0  0  0  0  0  0
   -6.8184   -3.7670    2.6386 C   0  0  0  0  0  0  0  0  0  0  0  0
   -7.5359   -5.1280    2.5600 C   0  0  0  0  0  0  0  0  0  0  0  0
   -8.5119   -5.3868    3.6973 C   0  0  0  0  0  0  0  0  0  0  0  0
   -9.4815   -6.3347    3.0664 C   0  0  0  0  0  0  0  0  0  0  0  0
   -9.4275   -5.9478    1.6006 C   0  0  0  0  0  0  0  0  0  0  0  0
   -8.2189   -5.2700    1.3345 O   0  0  0  0  0  0  0  0  0  0  0  0
   -8.1963   -1.9338    3.7283 C   0  0  0  0  0  0  0  0  0  0  0  0
   -7.8142   -2.2145    5.1594 C   0  0  0  0  0  0  0  0  0  0  0  0
   -8.8242    3.9507    4.8273 N   0  0  0  0  0  0  0  0  0  0  0  0
   -9.9120    4.9122    4.6263 C   0  0  0  0  0  0  0  0  0  0  0  0
   -9.5371    5.9041    3.5735 C   0  0  0  0  0  0  0  0  0  0  0  0
   -8.5149    6.8265    3.6595 C   0  0  0  0  0  0  0  0  0  0  0  0
   -8.5392    7.5153    2.4676 C   0  0  0  0  0  0  0  0  0  0  0  0
   -9.5709    6.9712    1.7312 C   0  0  0  0  0  0  0  0  0  0  0  0
  -10.1472    6.0132    2.4178 O   0  0  0  0  0  0  0  0  0  0  0  0
  1  3  4  0
  1 14  4  0
  1  2  1  0
  3  4  4  0
  4  5  4  0
  5  6  4  0
  5 22  1  0
  6  7  1  0
  6 14  4  0
  7  8  1  0
  8  9  4  0
  8 12  4  0
  9 10  4  0
 10 11  4  0
 11 12  4  0
 12 13  1  0
 13 14  1  0
 13 15  1  6
 15 16  4  0
 15 20  4  0
 16 17  4  0
 17 18  4  0
 17 21  1  0
 18 19  4  0
 19 20  4  0
 23 24  4  0
 24 25  4  0
 25 26  1  0
 26 27  1  0
 27 28  1  0
 28 29  2  0
 28 30  1  0
 30 31  4  0
 31 32  4  0
 32 33  1  0
 32 34  4  0
 34 35  1  0
 35 36  1  0
 36 37  1  0
 37 38  1  0
 38 39  1  0
 39 40  1  0
 34 41  4  0
 41 42  1  0
 25 43  4  0
 43 44  1  0
 44 45  1  0
 45 46  4  0
 46 47  4  0
 47 48  4  0
 48 49  4  0
 49 45  4  0
 41 30  4  0
 40 36  1  0
  2 23  4  0
  2 43  4  0
M  END
$$$$

     RDKit          3D

 32 37  0  0  0  0  0  0  0  0999 V2000
   -7.6410    4.9930    6.8080 C   0  0  0  0  0  0  0  0  0  1  0  0
   -7.7310    4.0530    5.7140 C   0  0  0  0  0  0  0  0  0  2  0  0
   -6.4520    5.6300    6.8680 N   0  0  0  0  0  0  0  0  0  0  0  0
   -6.2260    6.5240    7.8670 N   0  0  0  0  0  0  0  0  0  0  0  0
   -7.1930    6.7500    8.7820 C   0  0  0  0  0  0  0  0  0  0  0  0
   -8.4240    6.1170    8.7580 C   0  0  0  0  0  0  0  0  0  0  0  0
   -9.3950    6.3570    9.7450 N   0  0  0  0  0  0  0  0  0  0  0  0
  -10.5620    5.6840    9.7600 C   0  0  0  0  0  0  0  0  0  0  0  0
  -11.5770    5.6820   10.5960 N   0  0  0  0  0  0  0  0  0  0  0  0
  -12.4690    4.7490   10.1080 N   0  0  0  0  0  0  0  0  0  0  0  0
  -12.0160    4.1880    8.9920 N   0  0  0  0  0  0  0  0  0  0  0  0
  -10.8400    4.7900    8.7610 N   0  0  0  0  0  0  0  0  0  0  0  0
   -9.9950    4.4790    7.6090 C   0  0  0  0  0  0  0  0  0  0  0  0
   -8.6630    5.2070    7.7200 C   0  0  0  0  0  0  0  0  0  0  0  0
  -10.7490    4.8610    6.3730 C   0  0  0  0  0  0  0  0  0  0  0  0
  -11.0350    6.2020    6.1170 C   0  0  0  0  0  0  0  0  0  0  0  0
  -11.7370    6.5580    4.9650 C   0  0  0  0  0  0  0  0  0  0  0  0
  -12.1550    5.5730    4.0710 C   0  0  0  0  0  0  0  0  0  0  0  0
  -11.8700    4.2310    4.3270 C   0  0  0  0  0  0  0  0  0  0  0  0
  -11.1660    3.8760    5.4790 C   0  0  0  0  0  0  0  0  0  0  0  0
  -12.0160    7.8660    4.7150 O   0  0  0  0  0  0  0  0  0  0  0  0
   -6.8990    7.6510    9.7710 O   0  0  0  0  0  0  0  0  0  0  0  0
   -6.9299    2.8932    5.6504 C   0  0  0  0  0  0  0  0  0  0  0  0
   -7.0803    1.9230    4.6543 C   0  0  0  0  0  0  0  0  0  0  0  0
   -6.1866    0.7241    4.6271 C   0  0  0  0  0  0  0  0  0  0  0  0
   -8.0616    2.0546    3.7242 N   0  0  0  0  0  0  0  0  0  0  0  0
   -8.9061    3.1188    3.7116 C   0  0  0  0  0  0  0  0  0  0  0  0
   -9.8877    3.2092    2.7179 C   0  0  0  0  0  0  0  0  0  0  0  0
  -10.7468    4.3089    2.6781 C   0  0  0  0  0  0  0  0  0  0  0  0
  -10.6254    5.3272    3.6253 C   0  0  0  0  0  0  0  0  0  0  0  0
   -9.6511    5.2483    4.6246 C   0  0  0  0  0  0  0  0  0  0  0  0
   -8.7872    4.1351    4.6923 C   0  0  0  0  0  0  0  0  0  0  0  0
  1  3  4  0
  1 14  4  0
  1  2  1  0
  3  4  4  0
  4  5  4  0
  5  6  4  0
  5 22  1  0
  6  7  1  0
  6 14  4  0
  7  8  1  0
  8  9  4  0
  8 12  4  0
  9 10  4  0
 10 11  4  0
 11 12  4  0
 12 13  1  0
 13 14  1  0
 13 15  1  6
 15 16  4  0
 15 20  4  0
 16 17  4  0
 17 18  4  0
 17 21  1  0
 18 19  4  0
 19 20  4  0
 23 24  4  0
 24 25  1  0
 24 26  4  0
 26 27  4  0
 27 28  4  0
 28 29  4  0
 29 30  4  0
 30 31  4  0
 31 32  4  0
 32 27  4  0
  2 23  4  0
  2 32  4  0
M  END
$$$$

     RDKit          3D

 30 34  0  0  0  0  0  0  0  0999 V2000
   -7.6410    4.9930    6.8080 C   0  0  0  0  0  0  0  0  0  1  0  0
   -7.7310    4.0530    5.7140 C   0  0  0  0  0  0  0  0  0  2  0  0
   -6.4520    5.6300    6.8680 N   0  0  0  0  0  0  0  0  0  0  0  0
   -6.2260    6.5240    7.8670 N   0  0  0  0  0  0  0  0  0  0  0  0
   -7.1930    6.7500    8.7820 C   0  0  0  0  0  0  0  0  0  0  0  0
   -8.4240    6.1170    8.7580 C   0  0  0  0  0  0  0  0  0  0  0  0
   -9.3950    6.3570    9.7450 N   0  0  0  0  0  0  0  0  0  0  0  0
  -10.5620    5.6840    9.7600 C   0  0  0  0  0  0  0  0  0  0  0  0
  -11.5770    5.6820   10.5960 N   0  0  0  0  0  0  0  0  0  0  0  0
  -12.4690    4.7490   10.1080 N   0  0  0  0  0  0  0  0  0  0  0  0
  -12.0160    4.1880    8.9920 N   0  0  0  0  0  0  0  0  0  0  0  0
  -10.8400    4.7900    8.7610 N   0  0  0  0  0  0  0  0  0  0  0  0
   -9.9950    4.4790    7.6090 C   0  0  0  0  0  0  0  0  0  0  0  0
   -8.6630    5.2070    7.7200 C   0  0  0  0  0  0  0  0  0  0  0  0
  -10.7490    4.8610    6.3730 C   0  0  0  0  0  0  0  0  0  0  0  0
  -11.0350    6.2020    6.1170 C   0  0  0  0  0  0  0  0  0  0  0  0
  -11.7370    6.5580    4.9650 C   0  0  0  0  0  0  0  0  0  0  0  0
  -12.1550    5.5730    4.0710 C   0  0  0  0  0  0  0  0  0  0  0  0
  -11.8700    4.2310    4.3270 C   0  0  0  0  0  0  0  0  0  0  0  0
  -11.1660    3.8760    5.4790 C   0  0  0  0  0  0  0  0  0  0  0  0
  -12.0160    7.8660    4.7150 O   0  0  0  0  0  0  0  0  0  0  0  0
   -6.8990    7.6510    9.7710 O   0  0  0  0  0  0  0  0  0  0  0  0
   -7.0180    2.8131    5.6537 C   0  0  0  0  0  0  0  0  0  0  0  0
   -5.9942    2.5043    6.7168 C   0  0  0  0  0  0  0  0  0  0  0  0
   -7.1896    1.9040    4.5984 C   0  0  0  0  0  0  0  0  0  0  0  0
   -8.1521    2.1279    3.6084 C   0  0  0  0  0  0  0  0  0  0  0  0
   -8.3089    1.1565    2.4753 C   0  0  0  0  0  0  0  0  0  0  0  0
   -8.9226    3.2948    3.6456 C   0  0  0  0  0  0  0  0  0  0  0  0
   -8.7509    4.2374    4.6711 C   0  0  0  0  0  0  0  0  0  0  0  0
   -9.6070    5.4788    4.6719 C   0  0  0  0  0  0  0  0  0  0  0  0
  1  3  4  0
  1 14  4  0
  1  2  1  0
  3  4  4  0
  4  5  4  0
  5  6  4  0
  5 22  1  0
  6  7  1  0
  6 14  4  0
  7  8  1  0
  8  9  4  0
  8 12  4  0
  9 10  4  0
 10 11  4  0
 11 12  4  0
 12 13  1  0
 13 14  1  0
 13 15  1  6
 15 16  4  0
 15 20  4  0
 16 17  4  0
 17 18  4  0
 17 21  1  0
 18 19  4  0
 19 20  4  0
 23 24  1  0
 23 25  4  0
 25 26  4  0
 26 27  1  0
 26 28  4  0
 28 29  4  0
 29 30  1  0
  2 23  4  0
  2 29  4  0
M  END
$$$$

     RDKit          3D

 30 34  0  0  0  0  0  0  0  0999 V2000
   -7.6410    4.9930    6.8080 C   0  0  0  0  0  0  0  0  0  1  0  0
   -7.7310    4.0530    5.7140 C   0  0  0  0  0  0  0  0  0  2  0  0
   -6.4520    5.6300    6.8680 N   0  0  0  0  0  0  0  0  0  0  0  0
   -6.2260    6.5240    7.8670 N   0  0  0  0  0  0  0  0  0  0  0  0
   -7.1930    6.7500    8.7820 C   0  0  0  0  0  0  0  0  0  0  0  0
   -8.4240    6.1170    8.7580 C   0  0  0  0  0  0  0  0  0  0  0  0
   -9.3950    6.3570    9.7450 N   0  0  0  0  0  0  0  0  0  0  0  0
  -10.5620    5.6840    9.7600 C   0  0  0  0  0  0  0  0  0  0  0  0
  -11.5770    5.6820   10.5960 N   0  0  0  0  0  0  0  0  0  0  0  0
  -12.4690    4.7490   10.1080 N   0  0  0  0  0  0  0  0  0  0  0  0
  -12.0160    4.1880    8.9920 N   0  0  0  0  0  0  0  0  0  0  0  0
  -10.8400    4.7900    8.7610 N   0  0  0  0  0  0  0  0  0  0  0  0
   -9.9950    4.4790    7.6090 C   0  0  0  0  0  0  0  0  0  0  0  0
   -8.6630    5.2070    7.7200 C   0  0  0  0  0  0  0  0  0  0  0  0
  -10.7490    4.8610    6.3730 C   0  0  0  0  0  0  0  0  0  0  0  0
  -11.0350    6.2020    6.1170 C   0  0  0  0  0  0  0  0  0  0  0  0
  -11.7370    6.5580    4.9650 C   0  0  0  0  0  0  0  0  0  0  0  0
  -12.1550    5.5730    4.0710 C   0  0  0  0  0  0  0  0  0  0  0  0
  -11.8700    4.2310    4.3270 C   0  0  0  0  0  0  0  0  0  0  0  0
  -11.1660    3.8760    5.4790 C   0  0  0  0  0  0  0  0  0  0  0  0
  -12.0160    7.8660    4.7150 O   0  0  0  0  0  0  0  0  0  0  0  0
   -6.8990    7.6510    9.7710 O   0  0  0  0  0  0  0  0  0  0  0  0
   -8.7287    4.2505    4.6551 C   0  0  0  0  0  0  0  0  0  0  0  0
   -9.5714    5.5007    4.6445 C   0  0  0  0  0  0  0  0  0  0  0  0
   -8.8942    3.3101    3.6267 C   0  0  0  0  0  0  0  0  0  0  0  0
   -8.1179    2.1470    3.5876 C   0  0  0  0  0  0  0  0  0  0  0  0
   -8.3221    1.1405    2.4934 C   0  0  0  0  0  0  0  0  0  0  0  0
   -7.2012    1.8937    4.6136 C   0  0  0  0  0  0  0  0  0  0  0  0
   -7.0361    2.8015    5.6710 C   0  0  0  0  0  0  0  0  0  0  0  0
   -6.0429    2.4773    6.7582 C   0  0  0  0  0  0  0  0  0  0  0  0
  1  3  4  0
  1 14  4  0
  1  2  1  0
  3  4  4  0
  4  5  4  0
  5  6  4  0
  5 22  1  0
  6  7  1  0
  6 14  4  0
  7  8  1  0
  8  9  4  0
  8 12  4  0
  9 10  4  0
 10 11  4  0
 11 12  4  0
 12 13  1  0
 13 14  1  0
 13 15  1  6
 15 16  4  0
 15 20  4  0
 16 17  4  0
 17 18  4  0
 17 21  1  0
 18 19  4  0
 19 20  4  0
 23 24  1  0
 23 25  4  0
 25 26  4  0
 26 27  1  0
 26 28  4  0
 28 29  4  0
 29 30  1  0
  2 23  4  0
  2 29  4  0
M  END
$$$$

     RDKit          3D

 40 46  0  0  0  0  0  0  0  0999 V2000
   -7.6410    4.9930    6.8080 C   0  0  0  0  0  0  0  0  0  1  0  0
   -7.7310    4.0530    5.7140 C   0  0  0  0  0  0  0  0  0  2  0  0
   -6.4520    5.6300    6.8680 N   0  0  0  0  0  0  0  0  0  0  0  0
   -6.2260    6.5240    7.8670 N   0  0  0  0  0  0  0  0  0  0  0  0
   -7.1930    6.7500    8.7820 C   0  0  0  0  0  0  0  0  0  0  0  0
   -8.4240    6.1170    8.7580 C   0  0  0  0  0  0  0  0  0  0  0  0
   -9.3950    6.3570    9.7450 N   0  0  0  0  0  0  0  0  0  0  0  0
  -10.5620    5.6840    9.7600 C   0  0  0  0  0  0  0  0  0  0  0  0
  -11.5770    5.6820   10.5960 N   0  0  0  0  0  0  0  0  0  0  0  0
  -12.4690    4.7490   10.1080 N   0  0  0  0  0  0  0  0  0  0  0  0
  -12.0160    4.1880    8.9920 N   0  0  0  0  0  0  0  0  0  0  0  0
  -10.8400    4.7900    8.7610 N   0  0  0  0  0  0  0  0  0  0  0  0
   -9.9950    4.4790    7.6090 C   0  0  0  0  0  0  0  0  0  0  0  0
   -8.6630    5.2070    7.7200 C   0  0  0  0  0  0  0  0  0  0  0  0
  -10.7490    4.8610    6.3730 C   0  0  0  0  0  0  0  0  0  0  0  0
  -11.0350    6.2020    6.1170 C   0  0  0  0  0  0  0  0  0  0  0  0
  -11.7370    6.5580    4.9650 C   0  0  0  0  0  0  0  0  0  0  0  0
  -12.1550    5.5730    4.0710 C   0  0  0  0  0  0  0  0  0  0  0  0
  -11.8700    4.2310    4.3270 C   0  0  0  0  0  0  0  0  0  0  0  0
  -11.1660    3.8760    5.4790 C   0  0  0  0  0  0  0  0  0  0  0  0
  -12.0160    7.8660    4.7150 O   0  0  0  0  0  0  0  0  0  0  0  0
   -6.8990    7.6510    9.7710 O   0  0  0  0  0  0  0  0  0  0  0  0
   -6.7902    3.2326    5.1966 N   0  0  0  0  0  0  0  0  0  0  0  0
   -7.2391    2.5010    4.1857 N   0  0  0  0  0  0  0  0  0  0  0  0
   -8.5444    2.7917    4.0302 C   0  0  0  0  0  0  0  0  0  0  0  0
   -8.9235    3.7491    4.9415 C   0  0  0  0  0  0  0  0  0  0  0  0
  -10.2982    4.3388    4.9903 C   0  0  0  0  0  0  0  0  0  0  0  0
  -10.9762    4.0525    3.7159 N   0  0  0  0  0  0  0  0  0  0  0  0
  -11.6068    5.0899    2.9477 C   0  0  0  0  0  0  0  0  0  0  0  0
  -12.7748    4.9009    2.5147 O   0  0  0  0  0  0  0  0  0  0  0  0
  -10.8929    6.3643    2.6862 C   0  0  0  0  0  0  0  0  0  0  0  0
  -11.3153    7.3567    1.8872 C   0  0  0  0  0  0  0  0  0  0  0  0
  -12.4952    7.3021    1.0031 C   0  0  0  0  0  0  0  0  0  0  0  0
  -13.4451    8.3330    1.0593 C   0  0  0  0  0  0  0  0  0  0  0  0
  -14.5392    8.3312    0.1878 C   0  0  0  0  0  0  0  0  0  0  0  0
  -14.6773    7.3153   -0.7616 C   0  0  0  0  0  0  0  0  0  0  0  0
  -13.7180    6.3018   -0.8449 C   0  0  0  0  0  0  0  0  0  0  0  0
  -12.6235    6.2989    0.0261 C   0  0  0  0  0  0  0  0  0  0  0  0
  -10.8951    2.6833    3.1793 C   0  0  0  0  0  0  0  0  0  0  0  0
   -9.4236    2.3038    2.9152 C   0  0  0  0  0  0  0  0  0  0  0  0
  1  3  4  0
  1 14  4  0
  1  2  1  0
  3  4  4  0
  4  5  4  0
  5  6  4  0
  5 22  1  0
  6  7  1  0
  6 14  4  0
  7  8  1  0
  8  9  4  0
  8 12  4  0
  9 10  4  0
 10 11  4  0
 11 12  4  0
 12 13  1  0
 13 14  1  0
 13 15  1  6
 15 16  4  0
 15 20  4  0
 16 17  4  0
 17 18  4  0
 17 21  1  0
 18 19  4  0
 19 20  4  0
 23 24  4  0
 24 25  4  0
 25 26  4  0
 26 27  1  0
 27 28  1  0
 28 29  1  0
 29 30  2  0
 29 31  1  0
 31 32  2  3
 32 33  1  0
 33 34  4  0
 34 35  4  0
 35 36  4  0
 36 37  4  0
 37 38  4  0
 28 39  1  0
 39 40  1  0
 38 33  4  0
 40 25  1  0
  2 23  4  0
  2 26  4  0
M  END
$$$$

     RDKit          3D

 46 52  0  0  0  0  0  0  0  0999 V2000
   -7.6410    4.9930    6.8080 C   0  0  0  0  0  0  0  0  0  1  0  0
   -7.7310    4.0530    5.7140 C   0  0  0  0  0  0  0  0  0  2  0  0
   -6.4520    5.6300    6.8680 N   0  0  0  0  0  0  0  0  0  0  0  0
   -6.2260    6.5240    7.8670 N   0  0  0  0  0  0  0  0  0  0  0  0
   -7.1930    6.7500    8.7820 C   0  0  0  0  0  0  0  0  0  0  0  0
   -8.4240    6.1170    8.7580 C   0  0  0  0  0  0  0  0  0  0  0  0
   -9.3950    6.3570    9.7450 N   0  0  0  0  0  0  0  0  0  0  0  0
  -10.5620    5.6840    9.7600 C   0  0  0  0  0  0  0  0  0  0  0  0
  -11.5770    5.6820   10.5960 N   0  0  0  0  0  0  0  0  0  0  0  0
  -12.4690    4.7490   10.1080 N   0  0  0  0  0  0  0  0  0  0  0  0
  -12.0160    4.1880    8.9920 N   0  0  0  0  0  0  0  0  0  0  0  0
  -10.8400    4.7900    8.7610 N   0  0  0  0  0  0  0  0  0  0  0  0
   -9.9950    4.4790    7.6090 C   0  0  0  0  0  0  0  0  0  0  0  0
   -8.6630    5.2070    7.7200 C   0  0  0  0  0  0  0  0  0  0  0  0
  -10.7490    4.8610    6.3730 C   0  0  0  0  0  0  0  0  0  0  0  0
  -11.0350    6.2020    6.1170 C   0  0  0  0  0  0  0  0  0  0  0  0
  -11.7370    6.5580    4.9650 C   0  0  0  0  0  0  0  0  0  0  0  0
  -12.1550    5.5730    4.0710 C   0  0  0  0  0  0  0  0  0  0  0  0
  -11.8700    4.2310    4.3270 C   0  0  0  0  0  0  0  0  0  0  0  0
  -11.1660    3.8760    5.4790 C   0  0  0  0  0  0  0  0  0  0  0  0
  -12.0160    7.8660    4.7150 O   0  0  0  0  0  0  0  0  0  0  0  0
   -6.8990    7.6510    9.7710 O   0  0  0  0  0  0  0  0  0  0  0  0
   -6.7926    3.1678    5.3142 N   0  0  0  0  0  0  0  0  0  0  0  0
   -7.2697    2.4466    4.3104 N   0  0  0  0  0  0  0  0  0  0  0  0
   -6.5029    1.3909    3.6353 C   0  0  0  0  0  0  0  0  0  0  0  0
   -5.6331    1.9163    2.5556 N   0  0  0  0  0  0  0  0  0  0  0  0
   -6.4140    2.5144    1.4539 C   0  0  0  0  0  0  0  0  0  0  0  0
   -5.4830    2.9687    0.3227 C   0  0  0  0  0  0  0  0  0  0  0  0
   -4.4946    3.9303    0.8375 N   0  0  0  0  0  0  0  0  0  0  0  0
   -3.4272    4.4267   -0.4514 S   0  0  0  0  0  0  0  0  0  0  0  0
   -4.2524    4.8720   -1.6266 O   0  0  0  0  0  0  0  0  0  0  0  0
   -2.5786    3.2565   -0.8771 O   0  0  0  0  0  0  0  0  0  0  0  0
   -2.4282    5.7391    0.1488 N   0  0  0  0  0  0  0  0  0  0  0  0
   -2.9657    7.0806   -0.1433 C   0  0  0  0  0  0  0  0  0  0  0  0
   -2.3879    7.7516   -1.4266 C   0  0  0  0  0  0  0  0  0  0  0  0
   -3.2041    7.5050   -2.7052 C   0  0  0  0  0  0  0  0  0  0  0  0
   -1.0051    7.5120   -1.6320 O   0  0  0  0  0  0  0  0  0  0  0  0
   -0.6900    6.1357   -1.5594 C   0  0  0  0  0  0  0  0  0  0  0  0
    0.7944    5.9608   -1.8786 C   0  0  0  0  0  0  0  0  0  0  0  0
   -0.9992    5.6036   -0.1587 C   0  0  0  0  0  0  0  0  0  0  0  0
   -3.7017    3.3247    1.9216 C   0  0  0  0  0  0  0  0  0  0  0  0
   -4.6263    2.8742    3.0598 C   0  0  0  0  0  0  0  0  0  0  0  0
   -8.5415    2.8414    4.0821 C   0  0  0  0  0  0  0  0  0  0  0  0
   -9.5482    2.1713    2.9661 S   0  0  0  0  0  0  0  0  0  0  0  0
   -8.8892    3.8399    4.9205 N   0  0  0  0  0  0  0  0  0  0  0  0
  -10.1637    4.5565    4.9802 C   0  0  0  0  0  0  0  0  0  0  0  0
  1  3  4  0
  1 14  4  0
  1  2  1  0
  3  4  4  0
  4  5  4  0
  5  6  4  0
  5 22  1  0
  6  7  1  0
  6 14  4  0
  7  8  1  0
  8  9  4  0
  8 12  4  0
  9 10  4  0
 10 11  4  0
 11 12  4  0
 12 13  1  0
 13 14  1  0
 13 15  1  6
 15 16  4  0
 15 20  4  0
 16 17  4  0
 17 18  4  0
 17 21  1  0
 18 19  4  0
 19 20  4  0
 23 24  4  0
 24 25  1  0
 25 26  1  0
 26 27  1  0
 27 28  1  0
 28 29  1  0
 29 30  1  0
 30 31  2  0
 30 32  2  0
 30 33  1  0
 33 34  1  0
 34 35  1  0
 35 36  1  0
 35 37  1  0
 37 38  1  0
 38 39  1  0
 38 40  1  0
 29 41  1  0
 41 42  1  0
 24 43  4  0
 43 44  2  0
 43 45  4  0
 45 46  1  0
 42 26  1  0
 40 33  1  0
  2 23  4  0
  2 45  4  0
M  CHG  1  26   1
M  END
$$$$

     RDKit          3D

 46 52  0  0  0  0  0  0  0  0999 V2000
   -7.6410    4.9930    6.8080 C   0  0  0  0  0  0  0  0  0  1  0  0
   -7.7310    4.0530    5.7140 C   0  0  0  0  0  0  0  0  0  2  0  0
   -6.4520    5.6300    6.8680 N   0  0  0  0  0  0  0  0  0  0  0  0
   -6.2260    6.5240    7.8670 N   0  0  0  0  0  0  0  0  0  0  0  0
   -7.1930    6.7500    8.7820 C   0  0  0  0  0  0  0  0  0  0  0  0
   -8.4240    6.1170    8.7580 C   0  0  0  0  0  0  0  0  0  0  0  0
   -9.3950    6.3570    9.7450 N   0  0  0  0  0  0  0  0  0  0  0  0
  -10.5620    5.6840    9.7600 C   0  0  0  0  0  0  0  0  0  0  0  0
  -11.5770    5.6820   10.5960 N   0  0  0  0  0  0  0  0  0  0  0  0
  -12.4690    4.7490   10.1080 N   0  0  0  0  0  0  0  0  0  0  0  0
  -12.0160    4.1880    8.9920 N   0  0  0  0  0  0  0  0  0  0  0  0
  -10.8400    4.7900    8.7610 N   0  0  0  0  0  0  0  0  0  0  0  0
   -9.9950    4.4790    7.6090 C   0  0  0  0  0  0  0  0  0  0  0  0
   -8.6630    5.2070    7.7200 C   0  0  0  0  0  0  0  0  0  0  0  0
  -10.7490    4.8610    6.3730 C   0  0  0  0  0  0  0  0  0  0  0  0
  -11.0350    6.2020    6.1170 C   0  0  0  0  0  0  0  0  0  0  0  0
  -11.7370    6.5580    4.9650 C   0  0  0  0  0  0  0  0  0  0  0  0
  -12.1550    5.5730    4.0710 C   0  0  0  0  0  0  0  0  0  0  0  0
  -11.8700    4.2310    4.3270 C   0  0  0  0  0  0  0  0  0  0  0  0
  -11.1660    3.8760    5.4790 C   0  0  0  0  0  0  0  0  0  0  0  0
  -12.0160    7.8660    4.7150 O   0  0  0  0  0  0  0  0  0  0  0  0
   -6.8990    7.6510    9.7710 O   0  0  0  0  0  0  0  0  0  0  0  0
   -6.7935    3.1691    5.3094 N   0  0  0  0  0  0  0  0  0  0  0  0
   -7.2998    2.3952    4.3626 N   0  0  0  0  0  0  0  0  0  0  0  0
   -6.5796    1.2764    3.7474 C   0  0  0  0  0  0  0  0  0  0  0  0
   -6.8168    0.0192    4.5005 N   0  0  0  0  0  0  0  0  0  0  0  0
   -6.5884   -1.1820    3.6657 C   0  0  0  0  0  0  0  0  0  0  0  0
   -5.0958   -1.4417    3.4312 C   0  0  0  0  0  0  0  0  0  0  0  0
   -4.4168   -1.6047    4.7244 N   0  0  0  0  0  0  0  0  0  0  0  0
   -2.7291   -1.9605    4.4540 S   0  0  0  0  0  0  0  0  0  0  0  0
   -2.0048   -2.0092    5.7714 O   0  0  0  0  0  0  0  0  0  0  0  0
   -2.1160   -0.8785    3.6074 O   0  0  0  0  0  0  0  0  0  0  0  0
   -2.5709   -3.4948    3.6226 N   0  0  0  0  0  0  0  0  0  0  0  0
   -3.3781   -4.5499    4.2478 C   0  0  0  0  0  0  0  0  0  0  0  0
   -2.8184   -4.9554    5.6290 C   0  0  0  0  0  0  0  0  0  0  0  0
   -3.2898   -6.3485    6.0494 C   0  0  0  0  0  0  0  0  0  0  0  0
   -1.4068   -4.8396    5.7699 O   0  0  0  0  0  0  0  0  0  0  0  0
   -0.6741   -4.9042    4.5557 C   0  0  0  0  0  0  0  0  0  0  0  0
   -0.5614   -6.3429    4.0273 C   0  0  0  0  0  0  0  0  0  0  0  0
   -1.1603   -3.8978    3.4760 C   0  0  0  0  0  0  0  0  0  0  0  0
   -4.5491   -0.3764    5.5214 C   0  0  0  0  0  0  0  0  0  0  0  0
   -6.0357   -0.0552    5.7599 C   0  0  0  0  0  0  0  0  0  0  0  0
   -8.5849    2.7582    4.1705 C   0  0  0  0  0  0  0  0  0  0  0  0
   -9.6178    2.0219    3.1251 S   0  0  0  0  0  0  0  0  0  0  0  0
   -8.9172    3.7878    4.9762 N   0  0  0  0  0  0  0  0  0  0  0  0
  -10.2050    4.4780    5.0568 C   0  0  0  0  0  0  0  0  0  0  0  0
  1  3  4  0
  1 14  4  0
  1  2  1  0
  3  4  4  0
  4  5  4  0
  5  6  4  0
  5 22  1  0
  6  7  1  0
  6 14  4  0
  7  8  1  0
  8  9  4  0
  8 12  4  0
  9 10  4  0
 10 11  4  0
 11 12  4  0
 12 13  1  0
 13 14  1  0
 13 15  1  6
 15 16  4  0
 15 20  4  0
 16 17  4  0
 17 18  4  0
 17 21  1  0
 18 19  4  0
 19 20  4  0
 23 24  4  0
 24 25  1  0
 25 26  1  0
 26 27  1  0
 27 28  1  0
 28 29  1  0
 29 30  1  0
 30 31  2  0
 30 32  2  0
 30 33  1  0
 33 34  1  0
 34 35  1  0
 35 36  1  0
 35 37  1  0
 37 38  1  0
 38 39  1  0
 38 40  1  0
 29 41  1  0
 41 42  1  0
 24 43  4  0
 43 44  2  0
 43 45  4  0
 45 46  1  0
 42 26  1  0
 40 33  1  0
  2 23  4  0
  2 45  4  0
M  CHG  1  26   1
M  END
$$$$

     RDKit          3D

 46 52  0  0  0  0  0  0  0  0999 V2000
   -7.6410    4.9930    6.8080 C   0  0  0  0  0  0  0  0  0  1  0  0
   -7.7310    4.0530    5.7140 C   0  0  0  0  0  0  0  0  0  2  0  0
   -6.4520    5.6300    6.8680 N   0  0  0  0  0  0  0  0  0  0  0  0
   -6.2260    6.5240    7.8670 N   0  0  0  0  0  0  0  0  0  0  0  0
   -7.1930    6.7500    8.7820 C   0  0  0  0  0  0  0  0  0  0  0  0
   -8.4240    6.1170    8.7580 C   0  0  0  0  0  0  0  0  0  0  0  0
   -9.3950    6.3570    9.7450 N   0  0  0  0  0  0  0  0  0  0  0  0
  -10.5620    5.6840    9.7600 C   0  0  0  0  0  0  0  0  0  0  0  0
  -11.5770    5.6820   10.5960 N   0  0  0  0  0  0  0  0  0  0  0  0
  -12.4690    4.7490   10.1080 N   0  0  0  0  0  0  0  0  0  0  0  0
  -12.0160    4.1880    8.9920 N   0  0  0  0  0  0  0  0  0  0  0  0
  -10.8400    4.7900    8.7610 N   0  0  0  0  0  0  0  0  0  0  0  0
   -9.9950    4.4790    7.6090 C   0  0  0  0  0  0  0  0  0  0  0  0
   -8.6630    5.2070    7.7200 C   0  0  0  0  0  0  0  0  0  0  0  0
  -10.7490    4.8610    6.3730 C   0  0  0  0  0  0  0  0  0  0  0  0
  -11.0350    6.2020    6.1170 C   0  0  0  0  0  0  0  0  0  0  0  0
  -11.7370    6.5580    4.9650 C   0  0  0  0  0  0  0  0  0  0  0  0
  -12.1550    5.5730    4.0710 C   0  0  0  0  0  0  0  0  0  0  0  0
  -11.8700    4.2310    4.3270 C   0  0  0  0  0  0  0  0  0  0  0  0
  -11.1660    3.8760    5.4790 C   0  0  0  0  0  0  0  0  0  0  0  0
  -12.0160    7.8660    4.7150 O   0  0  0  0  0  0  0  0  0  0  0  0
   -6.8990    7.6510    9.7710 O   0  0  0  0  0  0  0  0  0  0  0  0
   -6.7920    3.1731    5.3047 N   0  0  0  0  0  0  0  0  0  0  0  0
   -7.2785    2.4481    4.3093 N   0  0  0  0  0  0  0  0  0  0  0  0
   -6.5105    1.4249    3.5929 C   0  0  0  0  0  0  0  0  0  0  0  0
   -6.0049    1.9444    2.2996 N   0  0  0  0  0  0  0  0  0  0  0  0
   -5.6405    0.8129    1.4056 C   0  0  0  0  0  0  0  0  0  0  0  0
   -4.5769    1.2238    0.3819 C   0  0  0  0  0  0  0  0  0  0  0  0
   -3.3140    1.5816    1.0589 N   0  0  0  0  0  0  0  0  0  0  0  0
   -2.3195    2.5401   -0.0098 S   0  0  0  0  0  0  0  0  0  0  0  0
   -2.9637    3.8803   -0.2353 O   0  0  0  0  0  0  0  0  0  0  0  0
   -0.9667    2.7432    0.6169 O   0  0  0  0  0  0  0  0  0  0  0  0
   -2.1410    1.7153   -1.5378 N   0  0  0  0  0  0  0  0  0  0  0  0
   -1.4104    0.4571   -1.3456 C   0  0  0  0  0  0  0  0  0  0  0  0
   -1.3912   -0.3163   -2.6858 C   0  0  0  0  0  0  0  0  0  0  0  0
   -0.1860   -1.2557   -2.7860 C   0  0  0  0  0  0  0  0  0  0  0  0
   -1.4683    0.5282   -3.8306 O   0  0  0  0  0  0  0  0  0  0  0  0
   -0.7755    1.7485   -3.6340 C   0  0  0  0  0  0  0  0  0  0  0  0
   -0.7467    2.5258   -4.9487 C   0  0  0  0  0  0  0  0  0  0  0  0
   -1.4401    2.5805   -2.5072 C   0  0  0  0  0  0  0  0  0  0  0  0
   -3.5070    2.2565    2.3646 C   0  0  0  0  0  0  0  0  0  0  0  0
   -4.8919    2.9168    2.4916 C   0  0  0  0  0  0  0  0  0  0  0  0
   -8.5484    2.8439    4.0838 C   0  0  0  0  0  0  0  0  0  0  0  0
   -9.5427    2.1927    2.9468 S   0  0  0  0  0  0  0  0  0  0  0  0
   -8.8957    3.8373    4.9288 N   0  0  0  0  0  0  0  0  0  0  0  0
  -10.1674    4.5602    4.9880 C   0  0  0  0  0  0  0  0  0  0  0  0
  1  3  4  0
  1 14  4  0
  1  2  1  0
  3  4  4  0
  4  5  4  0
  5  6  4  0
  5 22  1  0
  6  7  1  0
  6 14  4  0
  7  8  1  0
  8  9  4  0
  8 12  4  0
  9 10  4  0
 10 11  4  0
 11 12  4  0
 12 13  1  0
 13 14  1  0
 13 15  1  6
 15 16  4  0
 15 20  4  0
 16 17  4  0
 17 18  4  0
 17 21  1  0
 18 19  4  0
 19 20  4  0
 23 24  4  0
 24 25  1  0
 25 26  1  0
 26 27  1  0
 27 28  1  0
 28 29  1  0
 29 30  1  0
 30 31  2  0
 30 32  2  0
 30 33  1  0
 33 34  1  0
 34 35  1  0
 35 36  1  0
 35 37  1  0
 37 38  1  0
 38 39  1  0
 38 40  1  0
 29 41  1  0
 41 42  1  0
 24 43  4  0
 43 44  2  0
 43 45  4  0
 45 46  1  0
 42 26  1  0
 40 33  1  0
  2 23  4  0
  2 45  4  0
M  CHG  1  26   1
M  END
$$$$

     RDKit          3D

 44 50  0  0  0  0  0  0  0  0999 V2000
   -7.6410    4.9930    6.8080 C   0  0  0  0  0  0  0  0  0  1  0  0
   -7.7310    4.0530    5.7140 C   0  0  0  0  0  0  0  0  0  2  0  0
   -6.4520    5.6300    6.8680 N   0  0  0  0  0  0  0  0  0  0  0  0
   -6.2260    6.5240    7.8670 N   0  0  0  0  0  0  0  0  0  0  0  0
   -7.1930    6.7500    8.7820 C   0  0  0  0  0  0  0  0  0  0  0  0
   -8.4240    6.1170    8.7580 C   0  0  0  0  0  0  0  0  0  0  0  0
   -9.3950    6.3570    9.7450 N   0  0  0  0  0  0  0  0  0  0  0  0
  -10.5620    5.6840    9.7600 C   0  0  0  0  0  0  0  0  0  0  0  0
  -11.5770    5.6820   10.5960 N   0  0  0  0  0  0  0  0  0  0  0  0
  -12.4690    4.7490   10.1080 N   0  0  0  0  0  0  0  0  0  0  0  0
  -12.0160    4.1880    8.9920 N   0  0  0  0  0  0  0  0  0  0  0  0
  -10.8400    4.7900    8.7610 N   0  0  0  0  0  0  0  0  0  0  0  0
   -9.9950    4.4790    7.6090 C   0  0  0  0  0  0  0  0  0  0  0  0
   -8.6630    5.2070    7.7200 C   0  0  0  0  0  0  0  0  0  0  0  0
  -10.7490    4.8610    6.3730 C   0  0  0  0  0  0  0  0  0  0  0  0
  -11.0350    6.2020    6.1170 C   0  0  0  0  0  0  0  0  0  0  0  0
  -11.7370    6.5580    4.9650 C   0  0  0  0  0  0  0  0  0  0  0  0
  -12.1550    5.5730    4.0710 C   0  0  0  0  0  0  0  0  0  0  0  0
  -11.8700    4.2310    4.3270 C   0  0  0  0  0  0  0  0  0  0  0  0
  -11.1660    3.8760    5.4790 C   0  0  0  0  0  0  0  0  0  0  0  0
  -12.0160    7.8660    4.7150 O   0  0  0  0  0  0  0  0  0  0  0  0
   -6.8990    7.6510    9.7710 O   0  0  0  0  0  0  0  0  0  0  0  0
   -6.7755    3.1772    5.3091 N   0  0  0  0  0  0  0  0  0  0  0  0
   -7.3021    2.5049    4.2703 C   0  0  0  0  0  0  0  0  0  0  0  0
   -6.6765    1.5424    3.4833 C   0  0  0  0  0  0  0  0  0  0  0  0
   -7.3932    0.9996    2.3985 C   0  0  0  0  0  0  0  0  0  0  0  0
   -6.7283    0.0534    1.5501 N   0  0  0  0  0  0  0  0  0  0  0  0
   -7.3374   -0.5585    0.0488 S   0  0  0  0  0  0  0  0  0  0  0  0
   -7.8738    0.5763   -0.7786 O   0  0  0  0  0  0  0  0  0  0  0  0
   -6.2087   -1.1999   -0.7117 O   0  0  0  0  0  0  0  0  0  0  0  0
   -8.5863   -1.7647    0.3507 C   0  0  0  0  0  0  0  0  0  0  0  0
   -8.2298   -3.0261    0.8391 C   0  0  0  0  0  0  0  0  0  0  0  0
   -9.2122   -3.9933    1.0893 C   0  0  0  0  0  0  0  0  0  0  0  0
  -10.5770   -3.7101    0.8677 C   0  0  0  0  0  0  0  0  0  0  0  0
  -11.6392   -4.7243    1.1380 C   0  0  0  0  0  0  0  0  0  0  0  0
  -11.3085   -6.1271    1.5627 C   0  0  0  0  0  0  0  0  0  0  0  0
  -12.8531   -4.4129    0.9965 O   0  0  0  0  0  0  0  0  0  0  0  0
  -10.9249   -2.4373    0.3749 C   0  0  0  0  0  0  0  0  0  0  0  0
   -9.9368   -1.4775    0.1118 C   0  0  0  0  0  0  0  0  0  0  0  0
   -8.7308    1.4179    2.1629 C   0  0  0  0  0  0  0  0  0  0  0  0
   -9.3337    2.3892    2.9836 C   0  0  0  0  0  0  0  0  0  0  0  0
   -8.5778    2.9168    4.0296 C   0  0  0  0  0  0  0  0  0  0  0  0
   -8.8972    3.8830    4.9085 N   0  0  0  0  0  0  0  0  0  0  0  0
  -10.1371    4.6574    4.9652 C   0  0  0  0  0  0  0  0  0  0  0  0
  1  3  4  0
  1 14  4  0
  1  2  1  0
  3  4  4  0
  4  5  4  0
  5  6  4  0
  5 22  1  0
  6  7  1  0
  6 14  4  0
  7  8  1  0
  8  9  4  0
  8 12  4  0
  9 10  4  0
 10 11  4  0
 11 12  4  0
 12 13  1  0
 13 14  1  0
 13 15  1  6
 15 16  4  0
 15 20  4  0
 16 17  4  0
 17 18  4  0
 17 21  1  0
 18 19  4  0
 19 20  4  0
 23 24  4  0
 24 25  4  0
 25 26  4  0
 26 27  1  0
 27 28  1  0
 28 29  2  0
 28 30  2  0
 28 31  1  0
 31 32  4  0
 32 33  4  0
 33 34  4  0
 34 35  1  0
 35 36  1  0
 35 37  2  0
 34 38  4  0
 38 39  4  0
 26 40  4  0
 40 41  4  0
 41 42  4  0
 42 43  4  0
 43 44  1  0
 42 24  4  0
 39 31  4  0
  2 23  4  0
  2 43  4  0
M  CHG  1  27  -1
M  END
$$$$

     RDKit          3D

 41 47  0  0  0  0  0  0  0  0999 V2000
   -7.6410    4.9930    6.8080 C   0  0  0  0  0  0  0  0  0  1  0  0
   -7.7310    4.0530    5.7140 C   0  0  0  0  0  0  0  0  0  2  0  0
   -6.4520    5.6300    6.8680 N   0  0  0  0  0  0  0  0  0  0  0  0
   -6.2260    6.5240    7.8670 N   0  0  0  0  0  0  0  0  0  0  0  0
   -7.1930    6.7500    8.7820 C   0  0  0  0  0  0  0  0  0  0  0  0
   -8.4240    6.1170    8.7580 C   0  0  0  0  0  0  0  0  0  0  0  0
   -9.3950    6.3570    9.7450 N   0  0  0  0  0  0  0  0  0  0  0  0
  -10.5620    5.6840    9.7600 C   0  0  0  0  0  0  0  0  0  0  0  0
  -11.5770    5.6820   10.5960 N   0  0  0  0  0  0  0  0  0  0  0  0
  -12.4690    4.7490   10.1080 N   0  0  0  0  0  0  0  0  0  0  0  0
  -12.0160    4.1880    8.9920 N   0  0  0  0  0  0  0  0  0  0  0  0
  -10.8400    4.7900    8.7610 N   0  0  0  0  0  0  0  0  0  0  0  0
   -9.9950    4.4790    7.6090 C   0  0  0  0  0  0  0  0  0  0  0  0
   -8.6630    5.2070    7.7200 C   0  0  0  0  0  0  0  0  0  0  0  0
  -10.7490    4.8610    6.3730 C   0  0  0  0  0  0  0  0  0  0  0  0
  -11.0350    6.2020    6.1170 C   0  0  0  0  0  0  0  0  0  0  0  0
  -11.7370    6.5580    4.9650 C   0  0  0  0  0  0  0  0  0  0  0  0
  -12.1550    5.5730    4.0710 C   0  0  0  0  0  0  0  0  0  0  0  0
  -11.8700    4.2310    4.3270 C   0  0  0  0  0  0  0  0  0  0  0  0
  -11.1660    3.8760    5.4790 C   0  0  0  0  0  0  0  0  0  0  0  0
  -12.0160    7.8660    4.7150 O   0  0  0  0  0  0  0  0  0  0  0  0
   -6.8990    7.6510    9.7710 O   0  0  0  0  0  0  0  0  0  0  0  0
   -6.7903    3.1861    5.2878 N   0  0  0  0  0  0  0  0  0  0  0  0
   -7.2700    2.4383    4.3052 N   0  0  0  0  0  0  0  0  0  0  0  0
   -8.5468    2.8171    4.1146 C   0  0  0  0  0  0  0  0  0  0  0  0
   -9.6248    2.0696    2.8885 S   0  0  0  0  0  0  0  0  0  0  0  0
  -10.3406    0.8440    4.0426 C   0  0  0  0  0  0  0  0  0  0  0  0
  -11.5214    0.1339    3.3833 C   0  0  0  0  0  0  0  0  0  0  0  0
   -9.3048   -0.1401    4.5302 C   0  0  0  0  0  0  0  0  0  0  0  0
   -8.9744   -0.2802    5.8285 N   0  0  0  0  0  0  0  0  0  0  0  0
   -8.0632   -1.2438    5.8568 N   0  0  0  0  0  0  0  0  0  0  0  0
   -7.8344   -1.6883    4.6304 N   0  0  0  0  0  0  0  0  0  0  0  0
   -8.5930   -1.0125    3.7873 N   0  0  0  0  0  0  0  0  0  0  0  0
   -8.6170   -1.2387    2.3761 C   0  0  0  0  0  0  0  0  0  0  0  0
   -9.3439   -2.3166    1.8521 C   0  0  0  0  0  0  0  0  0  0  0  0
   -9.3526   -2.5525    0.4737 C   0  0  0  0  0  0  0  0  0  0  0  0
   -8.6228   -1.7225   -0.3830 C   0  0  0  0  0  0  0  0  0  0  0  0
   -7.8782   -0.6601    0.1388 C   0  0  0  0  0  0  0  0  0  0  0  0
   -7.8684   -0.4226    1.5168 C   0  0  0  0  0  0  0  0  0  0  0  0
   -8.9011    3.8112    4.9516 N   0  0  0  0  0  0  0  0  0  0  0  0
  -10.1894    4.4987    5.0208 C   0  0  0  0  0  0  0  0  0  0  0  0
  1  3  4  0
  1 14  4  0
  1  2  1  0
  3  4  4  0
  4  5  4  0
  5  6  4  0
  5 22  1  0
  6  7  1  0
  6 14  4  0
  7  8  1  0
  8  9  4  0
  8 12  4  0
  9 10  4  0
 10 11  4  0
 11 12  4  0
 12 13  1  0
 13 14  1  0
 13 15  1  6
 15 16  4  0
 15 20  4  0
 16 17  4  0
 17 18  4  0
 17 21  1  0
 18 19  4  0
 19 20  4  0
 23 24  4  0
 24 25  4  0
 25 26  1  0
 26 27  1  0
 27 28  1  0
 27 29  1  0
 29 30  4  0
 30 31  4  0
 31 32  4  0
 32 33  4  0
 33 34  1  0
 34 35  4  0
 35 36  4  0
 36 37  4  0
 37 38  4  0
 38 39  4  0
 25 40  4  0
 40 41  1  0
 33 29  4  0
 39 34  4  0
  2 23  4  0
  2 40  4  0
M  END
$$$$

     RDKit          3D

 29 33  0  0  0  0  0  0  0  0999 V2000
   -7.6410    4.9930    6.8080 C   0  0  0  0  0  0  0  0  0  1  0  0
   -7.7310    4.0530    5.7140 C   0  0  0  0  0  0  0  0  0  2  0  0
   -6.4520    5.6300    6.8680 N   0  0  0  0  0  0  0  0  0  0  0  0
   -6.2260    6.5240    7.8670 N   0  0  0  0  0  0  0  0  0  0  0  0
   -7.1930    6.7500    8.7820 C   0  0  0  0  0  0  0  0  0  0  0  0
   -8.4240    6.1170    8.7580 C   0  0  0  0  0  0  0  0  0  0  0  0
   -9.3950    6.3570    9.7450 N   0  0  0  0  0  0  0  0  0  0  0  0
  -10.5620    5.6840    9.7600 C   0  0  0  0  0  0  0  0  0  0  0  0
  -11.5770    5.6820   10.5960 N   0  0  0  0  0  0  0  0  0  0  0  0
  -12.4690    4.7490   10.1080 N   0  0  0  0  0  0  0  0  0  0  0  0
  -12.0160    4.1880    8.9920 N   0  0  0  0  0  0  0  0  0  0  0  0
  -10.8400    4.7900    8.7610 N   0  0  0  0  0  0  0  0  0  0  0  0
   -9.9950    4.4790    7.6090 C   0  0  0  0  0  0  0  0  0  0  0  0
   -8.6630    5.2070    7.7200 C   0  0  0  0  0  0  0  0  0  0  0  0
  -10.7490    4.8610    6.3730 C   0  0  0  0  0  0  0  0  0  0  0  0
  -11.0350    6.2020    6.1170 C   0  0  0  0  0  0  0  0  0  0  0  0
  -11.7370    6.5580    4.9650 C   0  0  0  0  0  0  0  0  0  0  0  0
  -12.1550    5.5730    4.0710 C   0  0  0  0  0  0  0  0  0  0  0  0
  -11.8700    4.2310    4.3270 C   0  0  0  0  0  0  0  0  0  0  0  0
  -11.1660    3.8760    5.4790 C   0  0  0  0  0  0  0  0  0  0  0  0
  -12.0160    7.8660    4.7150 O   0  0  0  0  0  0  0  0  0  0  0  0
   -6.8990    7.6510    9.7710 O   0  0  0  0  0  0  0  0  0  0  0  0
   -6.8716    2.9588    5.5411 C   0  0  0  0  0  0  0  0  0  0  0  0
   -7.0335    2.0173    4.5219 C   0  0  0  0  0  0  0  0  0  0  0  0
   -8.1079    2.1228    3.6376 C   0  0  0  0  0  0  0  0  0  0  0  0
   -9.0191    3.1749    3.7633 C   0  0  0  0  0  0  0  0  0  0  0  0
   -8.8674    4.1327    4.7870 C   0  0  0  0  0  0  0  0  0  0  0  0
   -9.7466    5.2210    4.9195 O   0  0  0  0  0  0  0  0  0  0  0  0
  -10.8487    5.4785    4.0559 C   0  0  0  0  0  0  0  0  0  0  0  0
  1  3  4  0
  1 14  4  0
  1  2  1  0
  3  4  4  0
  4  5  4  0
  5  6  4  0
  5 22  1  0
  6  7  1  0
  6 14  4  0
  7  8  1  0
  8  9  4  0
  8 12  4  0
  9 10  4  0
 10 11  4  0
 11 12  4  0
 12 13  1  0
 13 14  1  0
 13 15  1  6
 15 16  4  0
 15 20  4  0
 16 17  4  0
 17 18  4  0
 17 21  1  0
 18 19  4  0
 19 20  4  0
 23 24  4  0
 24 25  4  0
 25 26  4  0
 26 27  4  0
 27 28  1  0
 28 29  1  0
  2 23  4  0
  2 27  4  0
M  END
$$$$

     RDKit          3D

 46 53  0  0  0  0  0  0  0  0999 V2000
   -7.6410    4.9930    6.8080 C   0  0  0  0  0  0  0  0  0  1  0  0
   -7.7310    4.0530    5.7140 C   0  0  0  0  0  0  0  0  0  2  0  0
   -6.4520    5.6300    6.8680 N   0  0  0  0  0  0  0  0  0  0  0  0
   -6.2260    6.5240    7.8670 N   0  0  0  0  0  0  0  0  0  0  0  0
   -7.1930    6.7500    8.7820 C   0  0  0  0  0  0  0  0  0  0  0  0
   -8.4240    6.1170    8.7580 C   0  0  0  0  0  0  0  0  0  0  0  0
   -9.3950    6.3570    9.7450 N   0  0  0  0  0  0  0  0  0  0  0  0
  -10.5620    5.6840    9.7600 C   0  0  0  0  0  0  0  0  0  0  0  0
  -11.5770    5.6820   10.5960 N   0  0  0  0  0  0  0  0  0  0  0  0
  -12.4690    4.7490   10.1080 N   0  0  0  0  0  0  0  0  0  0  0  0
  -12.0160    4.1880    8.9920 N   0  0  0  0  0  0  0  0  0  0  0  0
  -10.8400    4.7900    8.7610 N   0  0  0  0  0  0  0  0  0  0  0  0
   -9.9950    4.4790    7.6090 C   0  0  0  0  0  0  0  0  0  0  0  0
   -8.6630    5.2070    7.7200 C   0  0  0  0  0  0  0  0  0  0  0  0
  -10.7490    4.8610    6.3730 C   0  0  0  0  0  0  0  0  0  0  0  0
  -11.0350    6.2020    6.1170 C   0  0  0  0  0  0  0  0  0  0  0  0
  -11.7370    6.5580    4.9650 C   0  0  0  0  0  0  0  0  0  0  0  0
  -12.1550    5.5730    4.0710 C   0  0  0  0  0  0  0  0  0  0  0  0
  -11.8700    4.2310    4.3270 C   0  0  0  0  0  0  0  0  0  0  0  0
  -11.1660    3.8760    5.4790 C   0  0  0  0  0  0  0  0  0  0  0  0
  -12.0160    7.8660    4.7150 O   0  0  0  0  0  0  0  0  0  0  0  0
   -6.8990    7.6510    9.7710 O   0  0  0  0  0  0  0  0  0  0  0  0
   -6.7533    3.3510    5.0977 N   0  0  0  0  0  0  0  0  0  0  0  0
   -7.2584    2.5642    4.1481 N   0  0  0  0  0  0  0  0  0  0  0  0
   -8.5892    2.7576    4.1744 C   0  0  0  0  0  0  0  0  0  0  0  0
   -9.5455    2.1884    3.3464 C   0  0  0  0  0  0  0  0  0  0  0  0
  -10.8767    2.5931    3.5353 C   0  0  0  0  0  0  0  0  0  0  0  0
  -11.1914    3.5635    4.5256 C   0  0  0  0  0  0  0  0  0  0  0  0
  -12.4979    4.0269    4.7475 O   0  0  0  0  0  0  0  0  0  0  0  0
  -13.6498    3.6495    3.9925 C   0  0  0  0  0  0  0  0  0  0  0  0
  -13.6635    4.3522    2.6341 C   0  0  0  0  0  0  0  0  0  0  0  0
  -14.8310    3.9192    1.8693 N   0  0  0  0  0  0  0  0  0  0  0  0
  -14.7404    3.0481    0.7324 C   0  0  0  0  0  0  0  0  0  0  0  0
  -13.6204    2.8087    0.2045 O   0  0  0  0  0  0  0  0  0  0  0  0
  -15.9572    2.4505    0.1465 C   0  0  0  0  0  0  0  0  0  0  0  0
  -16.2181    2.2542   -1.2047 C   0  0  0  0  0  0  0  0  0  0  0  0
  -15.3135    2.6009   -2.3430 C   0  0  0  0  0  0  0  0  0  0  0  0
  -17.4348    1.6837   -1.3685 N   0  0  0  0  0  0  0  0  0  0  0  0
  -17.8866    1.5421   -0.1059 C   0  0  0  0  0  0  0  0  0  0  0  0
  -19.1057    0.9725    0.2563 C   0  0  0  0  0  0  0  0  0  0  0  0
  -19.3954    0.8628    1.6249 C   0  0  0  0  0  0  0  0  0  0  0  0
  -18.4666    1.3037    2.5845 C   0  0  0  0  0  0  0  0  0  0  0  0
  -17.2528    1.8664    2.1645 C   0  0  0  0  0  0  0  0  0  0  0  0
  -17.0225    1.9848    0.8277 N   0  0  0  0  0  0  0  0  0  0  0  0
  -10.1856    4.0691    5.2975 N   0  0  0  0  0  0  0  0  0  0  0  0
   -8.9404    3.6386    5.1101 N   0  0  0  0  0  0  0  0  0  0  0  0
  1  3  4  0
  1 14  4  0
  1  2  1  0
  3  4  4  0
  4  5  4  0
  5  6  4  0
  5 22  1  0
  6  7  1  0
  6 14  4  0
  7  8  1  0
  8  9  4  0
  8 12  4  0
  9 10  4  0
 10 11  4  0
 11 12  4  0
 12 13  1  0
 13 14  1  0
 13 15  1  6
 15 16  4  0
 15 20  4  0
 16 17  4  0
 17 18  4  0
 17 21  1  0
 18 19  4  0
 19 20  4  0
 23 24  4  0
 24 25  4  0
 25 26  4  0
 26 27  4  0
 27 28  4  0
 28 29  1  0
 29 30  1  0
 30 31  1  0
 31 32  1  0
 32 33  1  0
 33 34  2  0
 33 35  1  0
 35 36  4  0
 36 37  1  0
 36 38  4  0
 38 39  4  0
 39 40  4  0
 40 41  4  0
 41 42  4  0
 42 43  4  0
 43 44  4  0
 28 45  4  0
 45 46  4  0
 46 25  4  0
 44 35  4  0
 44 39  4  0
  2 23  4  0
  2 46  4  0
M  END
$$$$

     RDKit          3D

 46 53  0  0  0  0  0  0  0  0999 V2000
   -7.6410    4.9930    6.8080 C   0  0  0  0  0  0  0  0  0  1  0  0
   -7.7310    4.0530    5.7140 C   0  0  0  0  0  0  0  0  0  2  0  0
   -6.4520    5.6300    6.8680 N   0  0  0  0  0  0  0  0  0  0  0  0
   -6.2260    6.5240    7.8670 N   0  0  0  0  0  0  0  0  0  0  0  0
   -7.1930    6.7500    8.7820 C   0  0  0  0  0  0  0  0  0  0  0  0
   -8.4240    6.1170    8.7580 C   0  0  0  0  0  0  0  0  0  0  0  0
   -9.3950    6.3570    9.7450 N   0  0  0  0  0  0  0  0  0  0  0  0
  -10.5620    5.6840    9.7600 C   0  0  0  0  0  0  0  0  0  0  0  0
  -11.5770    5.6820   10.5960 N   0  0  0  0  0  0  0  0  0  0  0  0
  -12.4690    4.7490   10.1080 N   0  0  0  0  0  0  0  0  0  0  0  0
  -12.0160    4.1880    8.9920 N   0  0  0  0  0  0  0  0  0  0  0  0
  -10.8400    4.7900    8.7610 N   0  0  0  0  0  0  0  0  0  0  0  0
   -9.9950    4.4790    7.6090 C   0  0  0  0  0  0  0  0  0  0  0  0
   -8.6630    5.2070    7.7200 C   0  0  0  0  0  0  0  0  0  0  0  0
  -10.7490    4.8610    6.3730 C   0  0  0  0  0  0  0  0  0  0  0  0
  -11.0350    6.2020    6.1170 C   0  0  0  0  0  0  0  0  0  0  0  0
  -11.7370    6.5580    4.9650 C   0  0  0  0  0  0  0  0  0  0  0  0
  -12.1550    5.5730    4.0710 C   0  0  0  0  0  0  0  0  0  0  0  0
  -11.8700    4.2310    4.3270 C   0  0  0  0  0  0  0  0  0  0  0  0
  -11.1660    3.8760    5.4790 C   0  0  0  0  0  0  0  0  0  0  0  0
  -12.0160    7.8660    4.7150 O   0  0  0  0  0  0  0  0  0  0  0  0
   -6.8990    7.6510    9.7710 O   0  0  0  0  0  0  0  0  0  0  0  0
   -6.7739    3.2707    5.1649 N   0  0  0  0  0  0  0  0  0  0  0  0
   -7.2802    2.5271    4.1797 N   0  0  0  0  0  0  0  0  0  0  0  0
   -8.5909    2.8318    4.1181 C   0  0  0  0  0  0  0  0  0  0  0  0
   -9.5342    2.3535    3.2210 C   0  0  0  0  0  0  0  0  0  0  0  0
  -10.8268    2.8913    3.3081 C   0  0  0  0  0  0  0  0  0  0  0  0
  -11.1121    3.9021    4.2633 C   0  0  0  0  0  0  0  0  0  0  0  0
  -12.3650    4.5238    4.3528 O   0  0  0  0  0  0  0  0  0  0  0  0
  -13.3132    4.6405    3.2906 C   0  0  0  0  0  0  0  0  0  0  0  0
  -12.8645    5.6921    2.2704 C   0  0  0  0  0  0  0  0  0  0  0  0
  -11.8429    5.1530    1.3718 N   0  0  0  0  0  0  0  0  0  0  0  0
  -12.1458    4.2053    0.3354 C   0  0  0  0  0  0  0  0  0  0  0  0
  -11.2516    3.4163   -0.0637 O   0  0  0  0  0  0  0  0  0  0  0  0
  -13.4829    4.1400   -0.2749 C   0  0  0  0  0  0  0  0  0  0  0  0
  -14.1264    5.1388   -0.9988 C   0  0  0  0  0  0  0  0  0  0  0  0
  -13.5723    6.4812   -1.3550 C   0  0  0  0  0  0  0  0  0  0  0  0
  -15.3008    4.6718   -1.4883 N   0  0  0  0  0  0  0  0  0  0  0  0
  -15.3480    3.4009   -1.0317 C   0  0  0  0  0  0  0  0  0  0  0  0
  -16.3750    2.4884   -1.2685 C   0  0  0  0  0  0  0  0  0  0  0  0
  -16.2441    1.2005   -0.7194 C   0  0  0  0  0  0  0  0  0  0  0  0
  -15.1034    0.8579    0.0313 C   0  0  0  0  0  0  0  0  0  0  0  0
  -14.1001    1.8141    0.2373 C   0  0  0  0  0  0  0  0  0  0  0  0
  -14.2686    3.0494   -0.3078 N   0  0  0  0  0  0  0  0  0  0  0  0
  -10.1309    4.2938    5.1265 N   0  0  0  0  0  0  0  0  0  0  0  0
   -8.9271    3.7364    5.0357 N   0  0  0  0  0  0  0  0  0  0  0  0
  1  3  4  0
  1 14  4  0
  1  2  1  0
  3  4  4  0
  4  5  4  0
  5  6  4  0
  5 22  1  0
  6  7  1  0
  6 14  4  0
  7  8  1  0
  8  9  4  0
  8 12  4  0
  9 10  4  0
 10 11  4  0
 11 12  4  0
 12 13  1  0
 13 14  1  0
 13 15  1  6
 15 16  4  0
 15 20  4  0
 16 17  4  0
 17 18  4  0
 17 21  1  0
 18 19  4  0
 19 20  4  0
 23 24  4  0
 24 25  4  0
 25 26  4  0
 26 27  4  0
 27 28  4  0
 28 29  1  0
 29 30  1  0
 30 31  1  0
 31 32  1  0
 32 33  1  0
 33 34  2  0
 33 35  1  0
 35 36  4  0
 36 37  1  0
 36 38  4  0
 38 39  4  0
 39 40  4  0
 40 41  4  0
 41 42  4  0
 42 43  4  0
 43 44  4  0
 28 45  4  0
 45 46  4  0
 46 25  4  0
 44 35  4  0
 44 39  4  0
  2 23  4  0
  2 46  4  0
M  END
$$$$

     RDKit          3D

 30 34  0  0  0  0  0  0  0  0999 V2000
   -7.6410    4.9930    6.8080 C   0  0  0  0  0  0  0  0  0  1  0  0
   -7.7310    4.0530    5.7140 C   0  0  0  0  0  0  0  0  0  2  0  0
   -6.4520    5.6300    6.8680 N   0  0  0  0  0  0  0  0  0  0  0  0
   -6.2260    6.5240    7.8670 N   0  0  0  0  0  0  0  0  0  0  0  0
   -7.1930    6.7500    8.7820 C   0  0  0  0  0  0  0  0  0  0  0  0
   -8.4240    6.1170    8.7580 C   0  0  0  0  0  0  0  0  0  0  0  0
   -9.3950    6.3570    9.7450 N   0  0  0  0  0  0  0  0  0  0  0  0
  -10.5620    5.6840    9.7600 C   0  0  0  0  0  0  0  0  0  0  0  0
  -11.5770    5.6820   10.5960 N   0  0  0  0  0  0  0  0  0  0  0  0
  -12.4690    4.7490   10.1080 N   0  0  0  0  0  0  0  0  0  0  0  0
  -12.0160    4.1880    8.9920 N   0  0  0  0  0  0  0  0  0  0  0  0
  -10.8400    4.7900    8.7610 N   0  0  0  0  0  0  0  0  0  0  0  0
   -9.9950    4.4790    7.6090 C   0  0  0  0  0  0  0  0  0  0  0  0
   -8.6630    5.2070    7.7200 C   0  0  0  0  0  0  0  0  0  0  0  0
  -10.7490    4.8610    6.3730 C   0  0  0  0  0  0  0  0  0  0  0  0
  -11.0350    6.2020    6.1170 C   0  0  0  0  0  0  0  0  0  0  0  0
  -11.7370    6.5580    4.9650 C   0  0  0  0  0  0  0  0  0  0  0  0
  -12.1550    5.5730    4.0710 C   0  0  0  0  0  0  0  0  0  0  0  0
  -11.8700    4.2310    4.3270 C   0  0  0  0  0  0  0  0  0  0  0  0
  -11.1660    3.8760    5.4790 C   0  0  0  0  0  0  0  0  0  0  0  0
  -12.0160    7.8660    4.7150 O   0  0  0  0  0  0  0  0  0  0  0  0
   -6.8990    7.6510    9.7710 O   0  0  0  0  0  0  0  0  0  0  0  0
   -6.9638    2.8769    5.6344 C   0  0  0  0  0  0  0  0  0  0  0  0
   -7.1475    1.9184    4.6346 C   0  0  0  0  0  0  0  0  0  0  0  0
   -6.1162    0.5006    4.5776 Cl  0  0  0  0  0  0  0  0  0  0  0  0
   -8.1559    2.0875    3.6834 C   0  0  0  0  0  0  0  0  0  0  0  0
   -8.9724    3.2205    3.7199 C   0  0  0  0  0  0  0  0  0  0  0  0
   -8.7912    4.1985    4.7181 C   0  0  0  0  0  0  0  0  0  0  0  0
   -9.5620    5.3724    4.7537 O   0  0  0  0  0  0  0  0  0  0  0  0
  -10.6159    5.6746    3.8460 C   0  0  0  0  0  0  0  0  0  0  0  0
  1  3  4  0
  1 14  4  0
  1  2  1  0
  3  4  4  0
  4  5  4  0
  5  6  4  0
  5 22  1  0
  6  7  1  0
  6 14  4  0
  7  8  1  0
  8  9  4  0
  8 12  4  0
  9 10  4  0
 10 11  4  0
 11 12  4  0
 12 13  1  0
 13 14  1  0
 13 15  1  6
 15 16  4  0
 15 20  4  0
 16 17  4  0
 17 18  4  0
 17 21  1  0
 18 19  4  0
 19 20  4  0
 23 24  4  0
 24 25  1  0
 24 26  4  0
 26 27  4  0
 27 28  4  0
 28 29  1  0
 29 30  1  0
  2 23  4  0
  2 28  4  0
M  END
$$$$

     RDKit          3D

 34 39  0  0  0  0  0  0  0  0999 V2000
   -7.6410    4.9930    6.8080 C   0  0  0  0  0  0  0  0  0  1  0  0
   -7.7310    4.0530    5.7140 C   0  0  0  0  0  0  0  0  0  2  0  0
   -6.4520    5.6300    6.8680 N   0  0  0  0  0  0  0  0  0  0  0  0
   -6.2260    6.5240    7.8670 N   0  0  0  0  0  0  0  0  0  0  0  0
   -7.1930    6.7500    8.7820 C   0  0  0  0  0  0  0  0  0  0  0  0
   -8.4240    6.1170    8.7580 C   0  0  0  0  0  0  0  0  0  0  0  0
   -9.3950    6.3570    9.7450 N   0  0  0  0  0  0  0  0  0  0  0  0
  -10.5620    5.6840    9.7600 C   0  0  0  0  0  0  0  0  0  0  0  0
  -11.5770    5.6820   10.5960 N   0  0  0  0  0  0  0  0  0  0  0  0
  -12.4690    4.7490   10.1080 N   0  0  0  0  0  0  0  0  0  0  0  0
  -12.0160    4.1880    8.9920 N   0  0  0  0  0  0  0  0  0  0  0  0
  -10.8400    4.7900    8.7610 N   0  0  0  0  0  0  0  0  0  0  0  0
   -9.9950    4.4790    7.6090 C   0  0  0  0  0  0  0  0  0  0  0  0
   -8.6630    5.2070    7.7200 C   0  0  0  0  0  0  0  0  0  0  0  0
  -10.7490    4.8610    6.3730 C   0  0  0  0  0  0  0  0  0  0  0  0
  -11.0350    6.2020    6.1170 C   0  0  0  0  0  0  0  0  0  0  0  0
  -11.7370    6.5580    4.9650 C   0  0  0  0  0  0  0  0  0  0  0  0
  -12.1550    5.5730    4.0710 C   0  0  0  0  0  0  0  0  0  0  0  0
  -11.8700    4.2310    4.3270 C   0  0  0  0  0  0  0  0  0  0  0  0
  -11.1660    3.8760    5.4790 C   0  0  0  0  0  0  0  0  0  0  0  0
  -12.0160    7.8660    4.7150 O   0  0  0  0  0  0  0  0  0  0  0  0
   -6.8990    7.6510    9.7710 O   0  0  0  0  0  0  0  0  0  0  0  0
   -7.2094    2.7856    5.7271 N   0  0  0  0  0  0  0  0  0  0  0  0
   -7.5955    2.1650    4.6016 C   0  0  0  0  0  0  0  0  0  0  0  0
   -7.2804    0.8658    4.2104 C   0  0  0  0  0  0  0  0  0  0  0  0
   -7.8115    0.3947    2.9975 C   0  0  0  0  0  0  0  0  0  0  0  0
   -8.6346    1.2267    2.1990 C   0  0  0  0  0  0  0  0  0  0  0  0
   -9.2329    0.6961    0.9307 C   0  0  0  0  0  0  0  0  0  0  0  0
   -8.9479    2.5324    2.6351 C   0  0  0  0  0  0  0  0  0  0  0  0
   -8.4000    2.9750    3.8416 C   0  0  0  0  0  0  0  0  0  0  0  0
   -8.5243    4.1825    4.5129 C   0  0  0  0  0  0  0  0  0  0  0  0
   -9.3394    5.3778    4.0500 C   0  0  0  0  0  0  0  0  0  0  0  0
   -8.6308    6.7153    4.3073 C   0  0  0  0  0  0  0  0  0  0  0  0
  -10.6746    5.3645    4.6559 N   0  0  0  0  0  0  0  0  0  0  0  0
  1  3  4  0
  1 14  4  0
  1  2  1  0
  3  4  4  0
  4  5  4  0
  5  6  4  0
  5 22  1  0
  6  7  1  0
  6 14  4  0
  7  8  1  0
  8  9  4  0
  8 12  4  0
  9 10  4  0
 10 11  4  0
 11 12  4  0
 12 13  1  0
 13 14  1  0
 13 15  1  6
 15 16  4  0
 15 20  4  0
 16 17  4  0
 17 18  4  0
 17 21  1  0
 18 19  4  0
 19 20  4  0
 23 24  4  0
 24 25  4  0
 25 26  4  0
 26 27  4  0
 27 28  1  0
 27 29  4  0
 29 30  4  0
 30 31  4  0
 31 32  1  0
 32 33  1  0
 32 34  1  0
 30 24  4  0
  2 23  4  0
  2 31  4  0
M  CHG  1  34   1
M  END
$$$$

     RDKit          3D

 29 33  0  0  0  0  0  0  0  0999 V2000
   -7.6410    4.9930    6.8080 C   0  0  0  0  0  0  0  0  0  1  0  0
   -7.7310    4.0530    5.7140 C   0  0  0  0  0  0  0  0  0  2  0  0
   -6.4520    5.6300    6.8680 N   0  0  0  0  0  0  0  0  0  0  0  0
   -6.2260    6.5240    7.8670 N   0  0  0  0  0  0  0  0  0  0  0  0
   -7.1930    6.7500    8.7820 C   0  0  0  0  0  0  0  0  0  0  0  0
   -8.4240    6.1170    8.7580 C   0  0  0  0  0  0  0  0  0  0  0  0
   -9.3950    6.3570    9.7450 N   0  0  0  0  0  0  0  0  0  0  0  0
  -10.5620    5.6840    9.7600 C   0  0  0  0  0  0  0  0  0  0  0  0
  -11.5770    5.6820   10.5960 N   0  0  0  0  0  0  0  0  0  0  0  0
  -12.4690    4.7490   10.1080 N   0  0  0  0  0  0  0  0  0  0  0  0
  -12.0160    4.1880    8.9920 N   0  0  0  0  0  0  0  0  0  0  0  0
  -10.8400    4.7900    8.7610 N   0  0  0  0  0  0  0  0  0  0  0  0
   -9.9950    4.4790    7.6090 C   0  0  0  0  0  0  0  0  0  0  0  0
   -8.6630    5.2070    7.7200 C   0  0  0  0  0  0  0  0  0  0  0  0
  -10.7490    4.8610    6.3730 C   0  0  0  0  0  0  0  0  0  0  0  0
  -11.0350    6.2020    6.1170 C   0  0  0  0  0  0  0  0  0  0  0  0
  -11.7370    6.5580    4.9650 C   0  0  0  0  0  0  0  0  0  0  0  0
  -12.1550    5.5730    4.0710 C   0  0  0  0  0  0  0  0  0  0  0  0
  -11.8700    4.2310    4.3270 C   0  0  0  0  0  0  0  0  0  0  0  0
  -11.1660    3.8760    5.4790 C   0  0  0  0  0  0  0  0  0  0  0  0
  -12.0160    7.8660    4.7150 O   0  0  0  0  0  0  0  0  0  0  0  0
   -6.8990    7.6510    9.7710 O   0  0  0  0  0  0  0  0  0  0  0  0
   -6.9413    2.9372    5.4478 C   0  0  0  0  0  0  0  0  0  0  0  0
   -7.3895    2.2341    4.3919 N   0  0  0  0  0  0  0  0  0  0  0  0
   -8.5021    2.8446    3.9440 C   0  0  0  0  0  0  0  0  0  0  0  0
   -8.7752    3.9563    4.7191 C   0  0  0  0  0  0  0  0  0  0  0  0
   -9.8590    4.9220    4.4693 C   0  0  0  0  0  0  0  0  0  0  0  0
   -9.8877    6.0269    5.0715 O   0  0  0  0  0  0  0  0  0  0  0  0
  -10.8469    4.6294    3.5372 O   0  0  0  0  0  0  0  0  0  0  0  0
  1  3  4  0
  1 14  4  0
  1  2  1  0
  3  4  4  0
  4  5  4  0
  5  6  4  0
  5 22  1  0
  6  7  1  0
  6 14  4  0
  7  8  1  0
  8  9  4  0
  8 12  4  0
  9 10  4  0
 10 11  4  0
 11 12  4  0
 12 13  1  0
 13 14  1  0
 13 15  1  6
 15 16  4  0
 15 20  4  0
 16 17  4  0
 17 18  4  0
 17 21  1  0
 18 19  4  0
 19 20  4  0
 23 24  4  0
 24 25  4  0
 25 26  4  0
 26 27  1  0
 27 28  2  0
 27 29  1  0
  2 23  4  0
  2 26  4  0
M  CHG  1  29  -1
M  END
$$$$

     RDKit          3D

 29 33  0  0  0  0  0  0  0  0999 V2000
   -7.6410    4.9930    6.8080 C   0  0  0  0  0  0  0  0  0  1  0  0
   -7.7310    4.0530    5.7140 C   0  0  0  0  0  0  0  0  0  2  0  0
   -6.4520    5.6300    6.8680 N   0  0  0  0  0  0  0  0  0  0  0  0
   -6.2260    6.5240    7.8670 N   0  0  0  0  0  0  0  0  0  0  0  0
   -7.1930    6.7500    8.7820 C   0  0  0  0  0  0  0  0  0  0  0  0
   -8.4240    6.1170    8.7580 C   0  0  0  0  0  0  0  0  0  0  0  0
   -9.3950    6.3570    9.7450 N   0  0  0  0  0  0  0  0  0  0  0  0
  -10.5620    5.6840    9.7600 C   0  0  0  0  0  0  0  0  0  0  0  0
  -11.5770    5.6820   10.5960 N   0  0  0  0  0  0  0  0  0  0  0  0
  -12.4690    4.7490   10.1080 N   0  0  0  0  0  0  0  0  0  0  0  0
  -12.0160    4.1880    8.9920 N   0  0  0  0  0  0  0  0  0  0  0  0
  -10.8400    4.7900    8.7610 N   0  0  0  0  0  0  0  0  0  0  0  0
   -9.9950    4.4790    7.6090 C   0  0  0  0  0  0  0  0  0  0  0  0
   -8.6630    5.2070    7.7200 C   0  0  0  0  0  0  0  0  0  0  0  0
  -10.7490    4.8610    6.3730 C   0  0  0  0  0  0  0  0  0  0  0  0
  -11.0350    6.2020    6.1170 C   0  0  0  0  0  0  0  0  0  0  0  0
  -11.7370    6.5580    4.9650 C   0  0  0  0  0  0  0  0  0  0  0  0
  -12.1550    5.5730    4.0710 C   0  0  0  0  0  0  0  0  0  0  0  0
  -11.8700    4.2310    4.3270 C   0  0  0  0  0  0  0  0  0  0  0  0
  -11.1660    3.8760    5.4790 C   0  0  0  0  0  0  0  0  0  0  0  0
  -12.0160    7.8660    4.7150 O   0  0  0  0  0  0  0  0  0  0  0  0
   -6.8990    7.6510    9.7710 O   0  0  0  0  0  0  0  0  0  0  0  0
   -6.9247    2.9531    5.4344 C   0  0  0  0  0  0  0  0  0  0  0  0
   -7.3748    2.2411    4.3854 N   0  0  0  0  0  0  0  0  0  0  0  0
   -8.5055    2.8296    3.9546 C   0  0  0  0  0  0  0  0  0  0  0  0
   -8.7892    3.9366    4.7344 C   0  0  0  0  0  0  0  0  0  0  0  0
   -9.8960    4.8821    4.5038 C   0  0  0  0  0  0  0  0  0  0  0  0
  -10.8018    4.6011    3.6755 O   0  0  0  0  0  0  0  0  0  0  0  0
   -9.9395    6.1007    5.1689 O   0  0  0  0  0  0  0  0  0  0  0  0
  1  3  4  0
  1 14  4  0
  1  2  1  0
  3  4  4  0
  4  5  4  0
  5  6  4  0
  5 22  1  0
  6  7  1  0
  6 14  4  0
  7  8  1  0
  8  9  4  0
  8 12  4  0
  9 10  4  0
 10 11  4  0
 11 12  4  0
 12 13  1  0
 13 14  1  0
 13 15  1  6
 15 16  4  0
 15 20  4  0
 16 17  4  0
 17 18  4  0
 17 21  1  0
 18 19  4  0
 19 20  4  0
 23 24  4  0
 24 25  4  0
 25 26  4  0
 26 27  1  0
 27 28  2  0
 27 29  1  0
  2 23  4  0
  2 26  4  0
M  CHG  1  29  -1
M  END
$$$$

     RDKit          3D

 45 51  0  0  0  0  0  0  0  0999 V2000
   -7.6410    4.9930    6.8080 C   0  0  0  0  0  0  0  0  0  1  0  0
   -7.7310    4.0530    5.7140 C   0  0  0  0  0  0  0  0  0  2  0  0
   -6.4520    5.6300    6.8680 N   0  0  0  0  0  0  0  0  0  0  0  0
   -6.2260    6.5240    7.8670 N   0  0  0  0  0  0  0  0  0  0  0  0
   -7.1930    6.7500    8.7820 C   0  0  0  0  0  0  0  0  0  0  0  0
   -8.4240    6.1170    8.7580 C   0  0  0  0  0  0  0  0  0  0  0  0
   -9.3950    6.3570    9.7450 N   0  0  0  0  0  0  0  0  0  0  0  0
  -10.5620    5.6840    9.7600 C   0  0  0  0  0  0  0  0  0  0  0  0
  -11.5770    5.6820   10.5960 N   0  0  0  0  0  0  0  0  0  0  0  0
  -12.4690    4.7490   10.1080 N   0  0  0  0  0  0  0  0  0  0  0  0
  -12.0160    4.1880    8.9920 N   0  0  0  0  0  0  0  0  0  0  0  0
  -10.8400    4.7900    8.7610 N   0  0  0  0  0  0  0  0  0  0  0  0
   -9.9950    4.4790    7.6090 C   0  0  0  0  0  0  0  0  0  0  0  0
   -8.6630    5.2070    7.7200 C   0  0  0  0  0  0  0  0  0  0  0  0
  -10.7490    4.8610    6.3730 C   0  0  0  0  0  0  0  0  0  0  0  0
  -11.0350    6.2020    6.1170 C   0  0  0  0  0  0  0  0  0  0  0  0
  -11.7370    6.5580    4.9650 C   0  0  0  0  0  0  0  0  0  0  0  0
  -12.1550    5.5730    4.0710 C   0  0  0  0  0  0  0  0  0  0  0  0
  -11.8700    4.2310    4.3270 C   0  0  0  0  0  0  0  0  0  0  0  0
  -11.1660    3.8760    5.4790 C   0  0  0  0  0  0  0  0  0  0  0  0
  -12.0160    7.8660    4.7150 O   0  0  0  0  0  0  0  0  0  0  0  0
   -6.8990    7.6510    9.7710 O   0  0  0  0  0  0  0  0  0  0  0  0
   -6.7774    3.2168    5.2542 N   0  0  0  0  0  0  0  0  0  0  0  0
   -7.2448    2.4955    4.2437 N   0  0  0  0  0  0  0  0  0  0  0  0
   -8.5252    2.8676    4.0613 C   0  0  0  0  0  0  0  0  0  0  0  0
   -9.5725    2.2007    2.7651 S   0  0  0  0  0  0  0  0  0  0  0  0
  -10.2121    0.8120    3.7671 C   0  0  0  0  0  0  0  0  0  0  0  0
   -9.4463   -0.4422    3.4700 C   0  0  0  0  0  0  0  0  0  0  0  0
   -9.3896   -0.8585    2.2800 O   0  0  0  0  0  0  0  0  0  0  0  0
   -8.8542   -1.2036    4.5328 N   0  0  0  0  0  0  0  0  0  0  0  0
   -8.3008   -2.5454    4.3032 C   0  0  0  0  0  0  0  0  0  0  0  0
   -9.3925   -3.4971    3.8617 C   0  0  0  0  0  0  0  0  0  0  0  0
  -10.5842   -3.6151    4.6022 C   0  0  0  0  0  0  0  0  0  0  0  0
  -11.5983   -4.4806    4.1767 C   0  0  0  0  0  0  0  0  0  0  0  0
  -11.4319   -5.2386    3.0149 C   0  0  0  0  0  0  0  0  0  0  0  0
  -10.2509   -5.1323    2.2780 C   0  0  0  0  0  0  0  0  0  0  0  0
   -9.2346   -4.2665    2.6976 C   0  0  0  0  0  0  0  0  0  0  0  0
   -7.6314   -3.0881    5.5461 C   0  0  0  0  0  0  0  0  0  0  0  0
   -8.1422   -2.9346    6.7876 N   0  0  0  0  0  0  0  0  0  0  0  0
   -7.3038   -3.6318    7.5835 C   0  0  0  0  0  0  0  0  0  0  0  0
   -6.3170   -4.2126    6.8208 C   0  0  0  0  0  0  0  0  0  0  0  0
   -6.5309   -3.8745    5.5388 N   0  0  0  0  0  0  0  0  0  0  0  0
   -5.7278   -4.2936    4.3934 C   0  0  0  0  0  0  0  0  0  0  0  0
   -8.8999    3.8165    4.9424 N   0  0  0  0  0  0  0  0  0  0  0  0
  -10.2019    4.4720    5.0419 C   0  0  0  0  0  0  0  0  0  0  0  0
  1  3  4  0
  1 14  4  0
  1  2  1  0
  3  4  4  0
  4  5  4  0
  5  6  4  0
  5 22  1  0
  6  7  1  0
  6 14  4  0
  7  8  1  0
  8  9  4  0
  8 12  4  0
  9 10  4  0
 10 11  4  0
 11 12  4  0
 12 13  1  0
 13 14  1  0
 13 15  1  6
 15 16  4  0
 15 20  4  0
 16 17  4  0
 17 18  4  0
 17 21  1  0
 18 19  4  0
 19 20  4  0
 23 24  4  0
 24 25  4  0
 25 26  1  0
 26 27  1  0
 27 28  1  0
 28 29  2  0
 28 30  1  0
 30 31  1  0
 31 32  1  0
 32 33  4  0
 33 34  4  0
 34 35  4  0
 35 36  4  0
 36 37  4  0
 31 38  1  0
 38 39  4  0
 39 40  4  0
 40 41  4  0
 41 42  4  0
 42 43  1  0
 25 44  4  0
 44 45  1  0
 37 32  4  0
 42 38  4  0
  2 23  4  0
  2 44  4  0
M  END
$$$$

     RDKit          3D

 45 51  0  0  0  0  0  0  0  0999 V2000
   -7.6410    4.9930    6.8080 C   0  0  0  0  0  0  0  0  0  1  0  0
   -7.7310    4.0530    5.7140 C   0  0  0  0  0  0  0  0  0  2  0  0
   -6.4520    5.6300    6.8680 N   0  0  0  0  0  0  0  0  0  0  0  0
   -6.2260    6.5240    7.8670 N   0  0  0  0  0  0  0  0  0  0  0  0
   -7.1930    6.7500    8.7820 C   0  0  0  0  0  0  0  0  0  0  0  0
   -8.4240    6.1170    8.7580 C   0  0  0  0  0  0  0  0  0  0  0  0
   -9.3950    6.3570    9.7450 N   0  0  0  0  0  0  0  0  0  0  0  0
  -10.5620    5.6840    9.7600 C   0  0  0  0  0  0  0  0  0  0  0  0
  -11.5770    5.6820   10.5960 N   0  0  0  0  0  0  0  0  0  0  0  0
  -12.4690    4.7490   10.1080 N   0  0  0  0  0  0  0  0  0  0  0  0
  -12.0160    4.1880    8.9920 N   0  0  0  0  0  0  0  0  0  0  0  0
  -10.8400    4.7900    8.7610 N   0  0  0  0  0  0  0  0  0  0  0  0
   -9.9950    4.4790    7.6090 C   0  0  0  0  0  0  0  0  0  0  0  0
   -8.6630    5.2070    7.7200 C   0  0  0  0  0  0  0  0  0  0  0  0
  -10.7490    4.8610    6.3730 C   0  0  0  0  0  0  0  0  0  0  0  0
  -11.0350    6.2020    6.1170 C   0  0  0  0  0  0  0  0  0  0  0  0
  -11.7370    6.5580    4.9650 C   0  0  0  0  0  0  0  0  0  0  0  0
  -12.1550    5.5730    4.0710 C   0  0  0  0  0  0  0  0  0  0  0  0
  -11.8700    4.2310    4.3270 C   0  0  0  0  0  0  0  0  0  0  0  0
  -11.1660    3.8760    5.4790 C   0  0  0  0  0  0  0  0  0  0  0  0
  -12.0160    7.8660    4.7150 O   0  0  0  0  0  0  0  0  0  0  0  0
   -6.8990    7.6510    9.7710 O   0  0  0  0  0  0  0  0  0  0  0  0
   -6.8048    3.1535    5.3221 N   0  0  0  0  0  0  0  0  0  0  0  0
   -7.2707    2.4315    4.3143 N   0  0  0  0  0  0  0  0  0  0  0  0
   -8.5201    2.8662    4.0658 C   0  0  0  0  0  0  0  0  0  0  0  0
   -9.5596    2.1916    2.7632 S   0  0  0  0  0  0  0  0  0  0  0  0
   -8.5501    2.8528    1.3831 C   0  0  0  0  0  0  0  0  0  0  0  0
   -8.6764    4.3438    1.1925 C   0  0  0  0  0  0  0  0  0  0  0  0
   -9.4984    5.0004    1.8851 O   0  0  0  0  0  0  0  0  0  0  0  0
   -7.8751    5.0450    0.2275 N   0  0  0  0  0  0  0  0  0  0  0  0
   -6.9648    4.3790   -0.7146 C   0  0  0  0  0  0  0  0  0  0  0  0
   -7.7408    3.5946   -1.7494 C   0  0  0  0  0  0  0  0  0  0  0  0
   -7.3456    2.2880   -2.0859 C   0  0  0  0  0  0  0  0  0  0  0  0
   -8.0486    1.5638   -3.0539 C   0  0  0  0  0  0  0  0  0  0  0  0
   -9.1484    2.1372   -3.6973 C   0  0  0  0  0  0  0  0  0  0  0  0
   -9.5455    3.4375   -3.3763 C   0  0  0  0  0  0  0  0  0  0  0  0
   -8.8440    4.1668   -2.4112 C   0  0  0  0  0  0  0  0  0  0  0  0
   -6.0839    5.3872   -1.4147 C   0  0  0  0  0  0  0  0  0  0  0  0
   -6.5675    6.5082   -1.9955 N   0  0  0  0  0  0  0  0  0  0  0  0
   -5.4849    7.0960   -2.5424 C   0  0  0  0  0  0  0  0  0  0  0  0
   -4.3695    6.3270   -2.2994 C   0  0  0  0  0  0  0  0  0  0  0  0
   -4.7507    5.2501   -1.5940 N   0  0  0  0  0  0  0  0  0  0  0  0
   -3.8867    4.1628   -1.1425 C   0  0  0  0  0  0  0  0  0  0  0  0
   -8.8771    3.8583    4.9064 N   0  0  0  0  0  0  0  0  0  0  0  0
  -10.1728    4.5292    5.0061 C   0  0  0  0  0  0  0  0  0  0  0  0
  1  3  4  0
  1 14  4  0
  1  2  1  0
  3  4  4  0
  4  5  4  0
  5  6  4  0
  5 22  1  0
  6  7  1  0
  6 14  4  0
  7  8  1  0
  8  9  4  0
  8 12  4  0
  9 10  4  0
 10 11  4  0
 11 12  4  0
 12 13  1  0
 13 14  1  0
 13 15  1  6
 15 16  4  0
 15 20  4  0
 16 17  4  0
 17 18  4  0
 17 21  1  0
 18 19  4  0
 19 20  4  0
 23 24  4  0
 24 25  4  0
 25 26  1  0
 26 27  1  0
 27 28  1  0
 28 29  2  0
 28 30  1  0
 30 31  1  0
 31 32  1  0
 32 33  4  0
 33 34  4  0
 34 35  4  0
 35 36  4  0
 36 37  4  0
 31 38  1  0
 38 39  4  0
 39 40  4  0
 40 41  4  0
 41 42  4  0
 42 43  1  0
 25 44  4  0
 44 45  1  0
 37 32  4  0
 42 38  4  0
  2 23  4  0
  2 44  4  0
M  END
$$$$

     RDKit          3D

 45 51  0  0  0  0  0  0  0  0999 V2000
   -7.6410    4.9930    6.8080 C   0  0  0  0  0  0  0  0  0  1  0  0
   -7.7310    4.0530    5.7140 C   0  0  0  0  0  0  0  0  0  2  0  0
   -6.4520    5.6300    6.8680 N   0  0  0  0  0  0  0  0  0  0  0  0
   -6.2260    6.5240    7.8670 N   0  0  0  0  0  0  0  0  0  0  0  0
   -7.1930    6.7500    8.7820 C   0  0  0  0  0  0  0  0  0  0  0  0
   -8.4240    6.1170    8.7580 C   0  0  0  0  0  0  0  0  0  0  0  0
   -9.3950    6.3570    9.7450 N   0  0  0  0  0  0  0  0  0  0  0  0
  -10.5620    5.6840    9.7600 C   0  0  0  0  0  0  0  0  0  0  0  0
  -11.5770    5.6820   10.5960 N   0  0  0  0  0  0  0  0  0  0  0  0
  -12.4690    4.7490   10.1080 N   0  0  0  0  0  0  0  0  0  0  0  0
  -12.0160    4.1880    8.9920 N   0  0  0  0  0  0  0  0  0  0  0  0
  -10.8400    4.7900    8.7610 N   0  0  0  0  0  0  0  0  0  0  0  0
   -9.9950    4.4790    7.6090 C   0  0  0  0  0  0  0  0  0  0  0  0
   -8.6630    5.2070    7.7200 C   0  0  0  0  0  0  0  0  0  0  0  0
  -10.7490    4.8610    6.3730 C   0  0  0  0  0  0  0  0  0  0  0  0
  -11.0350    6.2020    6.1170 C   0  0  0  0  0  0  0  0  0  0  0  0
  -11.7370    6.5580    4.9650 C   0  0  0  0  0  0  0  0  0  0  0  0
  -12.1550    5.5730    4.0710 C   0  0  0  0  0  0  0  0  0  0  0  0
  -11.8700    4.2310    4.3270 C   0  0  0  0  0  0  0  0  0  0  0  0
  -11.1660    3.8760    5.4790 C   0  0  0  0  0  0  0  0  0  0  0  0
  -12.0160    7.8660    4.7150 O   0  0  0  0  0  0  0  0  0  0  0  0
   -6.8990    7.6510    9.7710 O   0  0  0  0  0  0  0  0  0  0  0  0
   -6.8745    3.0524    5.4066 N   0  0  0  0  0  0  0  0  0  0  0  0
   -7.3554    2.3425    4.3952 N   0  0  0  0  0  0  0  0  0  0  0  0
   -8.5470    2.8793    4.0721 C   0  0  0  0  0  0  0  0  0  0  0  0
   -9.5804    2.2736    2.7346 S   0  0  0  0  0  0  0  0  0  0  0  0
   -8.7423    3.2705    1.4549 C   0  0  0  0  0  0  0  0  0  0  0  0
   -7.5865    2.5020    0.8975 C   0  0  0  0  0  0  0  0  0  0  0  0
   -6.4109    2.8383    1.2003 O   0  0  0  0  0  0  0  0  0  0  0  0
   -7.8266    1.3817    0.0323 N   0  0  0  0  0  0  0  0  0  0  0  0
   -6.7407    0.6011   -0.5737 C   0  0  0  0  0  0  0  0  0  0  0  0
   -7.2539   -0.5844   -1.3738 C   0  0  0  0  0  0  0  0  0  0  0  0
   -8.3633   -0.4753   -2.2372 C   0  0  0  0  0  0  0  0  0  0  0  0
   -8.7977   -1.5777   -2.9779 C   0  0  0  0  0  0  0  0  0  0  0  0
   -8.1322   -2.8008   -2.8718 C   0  0  0  0  0  0  0  0  0  0  0  0
   -7.0260   -2.9226   -2.0277 C   0  0  0  0  0  0  0  0  0  0  0  0
   -6.5846   -1.8215   -1.2871 C   0  0  0  0  0  0  0  0  0  0  0  0
   -5.8146    1.4529   -1.4169 C   0  0  0  0  0  0  0  0  0  0  0  0
   -4.4730    1.3087   -1.3371 N   0  0  0  0  0  0  0  0  0  0  0  0
   -3.9802    2.1970   -2.2228 C   0  0  0  0  0  0  0  0  0  0  0  0
   -5.0181    2.8629   -2.8298 C   0  0  0  0  0  0  0  0  0  0  0  0
   -6.1743    2.4061   -2.3170 N   0  0  0  0  0  0  0  0  0  0  0  0
   -7.5013    2.8181   -2.7711 C   0  0  0  0  0  0  0  0  0  0  0  0
   -8.8443    3.9322    4.8559 N   0  0  0  0  0  0  0  0  0  0  0  0
  -10.0394    4.7727    4.8143 C   0  0  0  0  0  0  0  0  0  0  0  0
  1  3  4  0
  1 14  4  0
  1  2  1  0
  3  4  4  0
  4  5  4  0
  5  6  4  0
  5 22  1  0
  6  7  1  0
  6 14  4  0
  7  8  1  0
  8  9  4  0
  8 12  4  0
  9 10  4  0
 10 11  4  0
 11 12  4  0
 12 13  1  0
 13 14  1  0
 13 15  1  6
 15 16  4  0
 15 20  4  0
 16 17  4  0
 17 18  4  0
 17 21  1  0
 18 19  4  0
 19 20  4  0
 23 24  4  0
 24 25  4  0
 25 26  1  0
 26 27  1  0
 27 28  1  0
 28 29  2  0
 28 30  1  0
 30 31  1  0
 31 32  1  0
 32 33  4  0
 33 34  4  0
 34 35  4  0
 35 36  4  0
 36 37  4  0
 31 38  1  0
 38 39  4  0
 39 40  4  0
 40 41  4  0
 41 42  4  0
 42 43  1  0
 25 44  4  0
 44 45  1  0
 37 32  4  0
 42 38  4  0
  2 23  4  0
  2 44  4  0
M  END
$$$$

     RDKit          3D

 38 44  0  0  0  0  0  0  0  0999 V2000
   -7.6410    4.9930    6.8080 C   0  0  0  0  0  0  0  0  0  1  0  0
   -7.7310    4.0530    5.7140 C   0  0  0  0  0  0  0  0  0  2  0  0
   -6.4520    5.6300    6.8680 N   0  0  0  0  0  0  0  0  0  0  0  0
   -6.2260    6.5240    7.8670 N   0  0  0  0  0  0  0  0  0  0  0  0
   -7.1930    6.7500    8.7820 C   0  0  0  0  0  0  0  0  0  0  0  0
   -8.4240    6.1170    8.7580 C   0  0  0  0  0  0  0  0  0  0  0  0
   -9.3950    6.3570    9.7450 N   0  0  0  0  0  0  0  0  0  0  0  0
  -10.5620    5.6840    9.7600 C   0  0  0  0  0  0  0  0  0  0  0  0
  -11.5770    5.6820   10.5960 N   0  0  0  0  0  0  0  0  0  0  0  0
  -12.4690    4.7490   10.1080 N   0  0  0  0  0  0  0  0  0  0  0  0
  -12.0160    4.1880    8.9920 N   0  0  0  0  0  0  0  0  0  0  0  0
  -10.8400    4.7900    8.7610 N   0  0  0  0  0  0  0  0  0  0  0  0
   -9.9950    4.4790    7.6090 C   0  0  0  0  0  0  0  0  0  0  0  0
   -8.6630    5.2070    7.7200 C   0  0  0  0  0  0  0  0  0  0  0  0
  -10.7490    4.8610    6.3730 C   0  0  0  0  0  0  0  0  0  0  0  0
  -11.0350    6.2020    6.1170 C   0  0  0  0  0  0  0  0  0  0  0  0
  -11.7370    6.5580    4.9650 C   0  0  0  0  0  0  0  0  0  0  0  0
  -12.1550    5.5730    4.0710 C   0  0  0  0  0  0  0  0  0  0  0  0
  -11.8700    4.2310    4.3270 C   0  0  0  0  0  0  0  0  0  0  0  0
  -11.1660    3.8760    5.4790 C   0  0  0  0  0  0  0  0  0  0  0  0
  -12.0160    7.8660    4.7150 O   0  0  0  0  0  0  0  0  0  0  0  0
   -6.8990    7.6510    9.7710 O   0  0  0  0  0  0  0  0  0  0  0  0
   -6.8466    2.9669    5.5804 C   0  0  0  0  0  0  0  0  0  0  0  0
   -6.9693    2.0168    4.5646 C   0  0  0  0  0  0  0  0  0  0  0  0
   -8.0146    2.1080    3.6449 C   0  0  0  0  0  0  0  0  0  0  0  0
   -8.9327    3.1568    3.7304 C   0  0  0  0  0  0  0  0  0  0  0  0
   -8.8223    4.1188    4.7465 C   0  0  0  0  0  0  0  0  0  0  0  0
   -9.9515    5.5061    4.7634 S   0  0  0  0  0  0  0  0  0  0  0  0
  -11.2989    4.9561    4.3153 O   0  0  0  0  0  0  0  0  0  0  0  0
   -9.4106    6.5570    3.4405 C   0  0  0  0  0  0  0  0  0  0  0  0
   -8.8883    7.7921    3.6559 N   0  0  0  0  0  0  0  0  0  0  0  0
   -8.5922    8.2059    2.4113 C   0  0  0  0  0  0  0  0  0  0  0  0
   -8.0135    9.4138    2.0296 C   0  0  0  0  0  0  0  0  0  0  0  0
   -7.7849    9.6241    0.6560 C   0  0  0  0  0  0  0  0  0  0  0  0
   -8.1298    8.6292   -0.2879 C   0  0  0  0  0  0  0  0  0  0  0  0
   -8.7085    7.4170    0.1338 C   0  0  0  0  0  0  0  0  0  0  0  0
   -8.9254    7.2495    1.4991 C   0  0  0  0  0  0  0  0  0  0  0  0
   -9.4458    6.1937    2.1344 N   0  0  0  0  0  0  0  0  0  0  0  0
  1  3  4  0
  1 14  4  0
  1  2  1  0
  3  4  4  0
  4  5  4  0
  5  6  4  0
  5 22  1  0
  6  7  1  0
  6 14  4  0
  7  8  1  0
  8  9  4  0
  8 12  4  0
  9 10  4  0
 10 11  4  0
 11 12  4  0
 12 13  1  0
 13 14  1  0
 13 15  1  6
 15 16  4  0
 15 20  4  0
 16 17  4  0
 17 18  4  0
 17 21  1  0
 18 19  4  0
 19 20  4  0
 23 24  4  0
 24 25  4  0
 25 26  4  0
 26 27  4  0
 27 28  1  0
 28 29  2  0
 28 30  1  0
 30 31  4  0
 31 32  4  0
 32 33  4  0
 33 34  4  0
 34 35  4  0
 35 36  4  0
 36 37  4  0
 37 38  4  0
 38 30  4  0
 37 32  4  0
  2 23  4  0
  2 27  4  0
M  END
$$$$

     RDKit          3D

 28 32  0  0  0  0  0  0  0  0999 V2000
   -7.6410    4.9930    6.8080 C   0  0  0  0  0  0  0  0  0  1  0  0
   -7.7310    4.0530    5.7140 C   0  0  0  0  0  0  0  0  0  2  0  0
   -6.4520    5.6300    6.8680 N   0  0  0  0  0  0  0  0  0  0  0  0
   -6.2260    6.5240    7.8670 N   0  0  0  0  0  0  0  0  0  0  0  0
   -7.1930    6.7500    8.7820 C   0  0  0  0  0  0  0  0  0  0  0  0
   -8.4240    6.1170    8.7580 C   0  0  0  0  0  0  0  0  0  0  0  0
   -9.3950    6.3570    9.7450 N   0  0  0  0  0  0  0  0  0  0  0  0
  -10.5620    5.6840    9.7600 C   0  0  0  0  0  0  0  0  0  0  0  0
  -11.5770    5.6820   10.5960 N   0  0  0  0  0  0  0  0  0  0  0  0
  -12.4690    4.7490   10.1080 N   0  0  0  0  0  0  0  0  0  0  0  0
  -12.0160    4.1880    8.9920 N   0  0  0  0  0  0  0  0  0  0  0  0
  -10.8400    4.7900    8.7610 N   0  0  0  0  0  0  0  0  0  0  0  0
   -9.9950    4.4790    7.6090 C   0  0  0  0  0  0  0  0  0  0  0  0
   -8.6630    5.2070    7.7200 C   0  0  0  0  0  0  0  0  0  0  0  0
  -10.7490    4.8610    6.3730 C   0  0  0  0  0  0  0  0  0  0  0  0
  -11.0350    6.2020    6.1170 C   0  0  0  0  0  0  0  0  0  0  0  0
  -11.7370    6.5580    4.9650 C   0  0  0  0  0  0  0  0  0  0  0  0
  -12.1550    5.5730    4.0710 C   0  0  0  0  0  0  0  0  0  0  0  0
  -11.8700    4.2310    4.3270 C   0  0  0  0  0  0  0  0  0  0  0  0
  -11.1660    3.8760    5.4790 C   0  0  0  0  0  0  0  0  0  0  0  0
  -12.0160    7.8660    4.7150 O   0  0  0  0  0  0  0  0  0  0  0  0
   -6.8990    7.6510    9.7710 O   0  0  0  0  0  0  0  0  0  0  0  0
   -6.9152    2.9251    5.5411 C   0  0  0  0  0  0  0  0  0  0  0  0
   -7.1170    1.9648    4.5488 C   0  0  0  0  0  0  0  0  0  0  0  0
   -8.2274    2.0504    3.7091 C   0  0  0  0  0  0  0  0  0  0  0  0
   -9.1414    3.0958    3.8599 C   0  0  0  0  0  0  0  0  0  0  0  0
   -8.9454    4.0786    4.8459 C   0  0  0  0  0  0  0  0  0  0  0  0
   -9.9369    5.2041    4.9766 C   0  0  0  0  0  0  0  0  0  0  0  0
  1  3  4  0
  1 14  4  0
  1  2  1  0
  3  4  4  0
  4  5  4  0
  5  6  4  0
  5 22  1  0
  6  7  1  0
  6 14  4  0
  7  8  1  0
  8  9  4  0
  8 12  4  0
  9 10  4  0
 10 11  4  0
 11 12  4  0
 12 13  1  0
 13 14  1  0
 13 15  1  6
 15 16  4  0
 15 20  4  0
 16 17  4  0
 17 18  4  0
 17 21  1  0
 18 19  4  0
 19 20  4  0
 23 24  4  0
 24 25  4  0
 25 26  4  0
 26 27  4  0
 27 28  1  0
  2 23  4  0
  2 27  4  0
M  END
$$$$

     RDKit          3D

 34 39  0  0  0  0  0  0  0  0999 V2000
   -7.6410    4.9930    6.8080 C   0  0  0  0  0  0  0  0  0  1  0  0
   -7.7310    4.0530    5.7140 C   0  0  0  0  0  0  0  0  0  2  0  0
   -6.4520    5.6300    6.8680 N   0  0  0  0  0  0  0  0  0  0  0  0
   -6.2260    6.5240    7.8670 N   0  0  0  0  0  0  0  0  0  0  0  0
   -7.1930    6.7500    8.7820 C   0  0  0  0  0  0  0  0  0  0  0  0
   -8.4240    6.1170    8.7580 C   0  0  0  0  0  0  0  0  0  0  0  0
   -9.3950    6.3570    9.7450 N   0  0  0  0  0  0  0  0  0  0  0  0
  -10.5620    5.6840    9.7600 C   0  0  0  0  0  0  0  0  0  0  0  0
  -11.5770    5.6820   10.5960 N   0  0  0  0  0  0  0  0  0  0  0  0
  -12.4690    4.7490   10.1080 N   0  0  0  0  0  0  0  0  0  0  0  0
  -12.0160    4.1880    8.9920 N   0  0  0  0  0  0  0  0  0  0  0  0
  -10.8400    4.7900    8.7610 N   0  0  0  0  0  0  0  0  0  0  0  0
   -9.9950    4.4790    7.6090 C   0  0  0  0  0  0  0  0  0  0  0  0
   -8.6630    5.2070    7.7200 C   0  0  0  0  0  0  0  0  0  0  0  0
  -10.7490    4.8610    6.3730 C   0  0  0  0  0  0  0  0  0  0  0  0
  -11.0350    6.2020    6.1170 C   0  0  0  0  0  0  0  0  0  0  0  0
  -11.7370    6.5580    4.9650 C   0  0  0  0  0  0  0  0  0  0  0  0
  -12.1550    5.5730    4.0710 C   0  0  0  0  0  0  0  0  0  0  0  0
  -11.8700    4.2310    4.3270 C   0  0  0  0  0  0  0  0  0  0  0  0
  -11.1660    3.8760    5.4790 C   0  0  0  0  0  0  0  0  0  0  0  0
  -12.0160    7.8660    4.7150 O   0  0  0  0  0  0  0  0  0  0  0  0
   -6.8990    7.6510    9.7710 O   0  0  0  0  0  0  0  0  0  0  0  0
   -6.7621    3.2916    5.0830 C   0  0  0  0  0  0  0  0  0  0  0  0
   -7.2637    2.4726    4.1299 N   0  0  0  0  0  0  0  0  0  0  0  0
   -6.4780    1.6148    3.2420 C   0  0  0  0  0  0  0  0  0  0  0  0
   -6.1709    2.3483    1.9365 C   0  0  0  0  0  0  0  0  0  0  0  0
   -5.3800    1.4958    1.0426 C   0  0  0  0  0  0  0  0  0  0  0  0
   -4.7560    0.8233    0.3370 N   0  0  0  0  0  0  0  0  0  0  0  0
   -8.5957    2.6873    4.1059 C   0  0  0  0  0  0  0  0  0  0  0  0
   -9.5409    2.1181    3.2466 C   0  0  0  0  0  0  0  0  0  0  0  0
  -10.8780    2.5324    3.3674 C   0  0  0  0  0  0  0  0  0  0  0  0
  -11.2406    3.5074    4.3194 C   0  0  0  0  0  0  0  0  0  0  0  0
  -10.2717    4.0721    5.1668 C   0  0  0  0  0  0  0  0  0  0  0  0
   -8.9528    3.6235    5.0495 C   0  0  0  0  0  0  0  0  0  0  0  0
  1  3  4  0
  1 14  4  0
  1  2  1  0
  3  4  4  0
  4  5  4  0
  5  6  4  0
  5 22  1  0
  6  7  1  0
  6 14  4  0
  7  8  1  0
  8  9  4  0
  8 12  4  0
  9 10  4  0
 10 11  4  0
 11 12  4  0
 12 13  1  0
 13 14  1  0
 13 15  1  6
 15 16  4  0
 15 20  4  0
 16 17  4  0
 17 18  4  0
 17 21  1  0
 18 19  4  0
 19 20  4  0
 23 24  4  0
 24 25  1  0
 25 26  1  0
 26 27  1  0
 27 28  3  0
 24 29  4  0
 29 30  4  0
 30 31  4  0
 31 32  4  0
 32 33  4  0
 33 34  4  0
 34 29  4  0
  2 23  4  0
  2 34  4  0
M  END
$$$$

     RDKit          3D

 31 35  0  0  0  0  0  0  0  0999 V2000
   -7.6410    4.9930    6.8080 C   0  0  0  0  0  0  0  0  0  1  0  0
   -7.7310    4.0530    5.7140 C   0  0  0  0  0  0  0  0  0  2  0  0
   -6.4520    5.6300    6.8680 N   0  0  0  0  0  0  0  0  0  0  0  0
   -6.2260    6.5240    7.8670 N   0  0  0  0  0  0  0  0  0  0  0  0
   -7.1930    6.7500    8.7820 C   0  0  0  0  0  0  0  0  0  0  0  0
   -8.4240    6.1170    8.7580 C   0  0  0  0  0  0  0  0  0  0  0  0
   -9.3950    6.3570    9.7450 N   0  0  0  0  0  0  0  0  0  0  0  0
  -10.5620    5.6840    9.7600 C   0  0  0  0  0  0  0  0  0  0  0  0
  -11.5770    5.6820   10.5960 N   0  0  0  0  0  0  0  0  0  0  0  0
  -12.4690    4.7490   10.1080 N   0  0  0  0  0  0  0  0  0  0  0  0
  -12.0160    4.1880    8.9920 N   0  0  0  0  0  0  0  0  0  0  0  0
  -10.8400    4.7900    8.7610 N   0  0  0  0  0  0  0  0  0  0  0  0
   -9.9950    4.4790    7.6090 C   0  0  0  0  0  0  0  0  0  0  0  0
   -8.6630    5.2070    7.7200 C   0  0  0  0  0  0  0  0  0  0  0  0
  -10.7490    4.8610    6.3730 C   0  0  0  0  0  0  0  0  0  0  0  0
  -11.0350    6.2020    6.1170 C   0  0  0  0  0  0  0  0  0  0  0  0
  -11.7370    6.5580    4.9650 C   0  0  0  0  0  0  0  0  0  0  0  0
  -12.1550    5.5730    4.0710 C   0  0  0  0  0  0  0  0  0  0  0  0
  -11.8700    4.2310    4.3270 C   0  0  0  0  0  0  0  0  0  0  0  0
  -11.1660    3.8760    5.4790 C   0  0  0  0  0  0  0  0  0  0  0  0
  -12.0160    7.8660    4.7150 O   0  0  0  0  0  0  0  0  0  0  0  0
   -6.8990    7.6510    9.7710 O   0  0  0  0  0  0  0  0  0  0  0  0
   -8.9807    3.9836    4.9105 C   0  0  0  0  0  0  0  0  0  0  0  0
  -10.0483    5.0421    5.0837 C   0  0  0  0  0  0  0  0  0  0  0  0
   -9.1481    2.9420    3.9725 C   0  0  0  0  0  0  0  0  0  0  0  0
  -10.3894    2.7982    3.1401 C   0  0  0  0  0  0  0  0  0  0  0  0
   -8.1456    2.0467    3.7848 N   0  0  0  0  0  0  0  0  0  0  0  0
   -7.0040    2.0891    4.4720 N   0  0  0  0  0  0  0  0  0  0  0  0
   -5.9844    1.0769    4.1949 C   0  0  0  0  0  0  0  0  0  0  0  0
   -6.8040    3.0379    5.4344 C   0  0  0  0  0  0  0  0  0  0  0  0
   -5.7336    3.0402    6.1055 O   0  0  0  0  0  0  0  0  0  0  0  0
  1  3  4  0
  1 14  4  0
  1  2  1  0
  3  4  4  0
  4  5  4  0
  5  6  4  0
  5 22  1  0
  6  7  1  0
  6 14  4  0
  7  8  1  0
  8  9  4  0
  8 12  4  0
  9 10  4  0
 10 11  4  0
 11 12  4  0
 12 13  1  0
 13 14  1  0
 13 15  1  6
 15 16  4  0
 15 20  4  0
 16 17  4  0
 17 18  4  0
 17 21  1  0
 18 19  4  0
 19 20  4  0
 23 24  1  0
 23 25  4  0
 25 26  1  0
 25 27  4  0
 27 28  4  0
 28 29  1  0
 28 30  4  0
 30 31  2  0
  2 23  4  0
  2 30  4  0
M  END
$$$$

     RDKit          3D

 31 35  0  0  0  0  0  0  0  0999 V2000
   -7.6410    4.9930    6.8080 C   0  0  0  0  0  0  0  0  0  1  0  0
   -7.7310    4.0530    5.7140 C   0  0  0  0  0  0  0  0  0  2  0  0
   -6.4520    5.6300    6.8680 N   0  0  0  0  0  0  0  0  0  0  0  0
   -6.2260    6.5240    7.8670 N   0  0  0  0  0  0  0  0  0  0  0  0
   -7.1930    6.7500    8.7820 C   0  0  0  0  0  0  0  0  0  0  0  0
   -8.4240    6.1170    8.7580 C   0  0  0  0  0  0  0  0  0  0  0  0
   -9.3950    6.3570    9.7450 N   0  0  0  0  0  0  0  0  0  0  0  0
  -10.5620    5.6840    9.7600 C   0  0  0  0  0  0  0  0  0  0  0  0
  -11.5770    5.6820   10.5960 N   0  0  0  0  0  0  0  0  0  0  0  0
  -12.4690    4.7490   10.1080 N   0  0  0  0  0  0  0  0  0  0  0  0
  -12.0160    4.1880    8.9920 N   0  0  0  0  0  0  0  0  0  0  0  0
  -10.8400    4.7900    8.7610 N   0  0  0  0  0  0  0  0  0  0  0  0
   -9.9950    4.4790    7.6090 C   0  0  0  0  0  0  0  0  0  0  0  0
   -8.6630    5.2070    7.7200 C   0  0  0  0  0  0  0  0  0  0  0  0
  -10.7490    4.8610    6.3730 C   0  0  0  0  0  0  0  0  0  0  0  0
  -11.0350    6.2020    6.1170 C   0  0  0  0  0  0  0  0  0  0  0  0
  -11.7370    6.5580    4.9650 C   0  0  0  0  0  0  0  0  0  0  0  0
  -12.1550    5.5730    4.0710 C   0  0  0  0  0  0  0  0  0  0  0  0
  -11.8700    4.2310    4.3270 C   0  0  0  0  0  0  0  0  0  0  0  0
  -11.1660    3.8760    5.4790 C   0  0  0  0  0  0  0  0  0  0  0  0
  -12.0160    7.8660    4.7150 O   0  0  0  0  0  0  0  0  0  0  0  0
   -6.8990    7.6510    9.7710 O   0  0  0  0  0  0  0  0  0  0  0  0
   -6.8172    3.0304    5.3717 C   0  0  0  0  0  0  0  0  0  0  0  0
   -5.5397    2.9249    6.1777 C   0  0  0  0  0  0  0  0  0  0  0  0
   -7.0458    2.1808    4.2676 C   0  0  0  0  0  0  0  0  0  0  0  0
   -6.0432    1.1596    3.8130 C   0  0  0  0  0  0  0  0  0  0  0  0
   -8.2221    2.2628    3.5963 N   0  0  0  0  0  0  0  0  0  0  0  0
   -9.1750    3.1380    3.9167 N   0  0  0  0  0  0  0  0  0  0  0  0
  -10.4056    3.1502    3.1250 C   0  0  0  0  0  0  0  0  0  0  0  0
   -8.9921    4.0261    4.9386 C   0  0  0  0  0  0  0  0  0  0  0  0
   -9.8835    4.8838    5.1936 O   0  0  0  0  0  0  0  0  0  0  0  0
  1  3  4  0
  1 14  4  0
  1  2  1  0
  3  4  4  0
  4  5  4  0
  5  6  4  0
  5 22  1  0
  6  7  1  0
  6 14  4  0
  7  8  1  0
  8  9  4  0
  8 12  4  0
  9 10  4  0
 10 11  4  0
 11 12  4  0
 12 13  1  0
 13 14  1  0
 13 15  1  6
 15 16  4  0
 15 20  4  0
 16 17  4  0
 17 18  4  0
 17 21  1  0
 18 19  4  0
 19 20  4  0
 23 24  1  0
 23 25  4  0
 25 26  1  0
 25 27  4  0
 27 28  4  0
 28 29  1  0
 28 30  4  0
 30 31  2  0
  2 23  4  0
  2 30  4  0
M  END
$$$$

     RDKit          3D

 29 33  0  0  0  0  0  0  0  0999 V2000
   -7.6410    4.9930    6.8080 C   0  0  0  0  0  0  0  0  0  1  0  0
   -7.7310    4.0530    5.7140 C   0  0  0  0  0  0  0  0  0  2  0  0
   -6.4520    5.6300    6.8680 N   0  0  0  0  0  0  0  0  0  0  0  0
   -6.2260    6.5240    7.8670 N   0  0  0  0  0  0  0  0  0  0  0  0
   -7.1930    6.7500    8.7820 C   0  0  0  0  0  0  0  0  0  0  0  0
   -8.4240    6.1170    8.7580 C   0  0  0  0  0  0  0  0  0  0  0  0
   -9.3950    6.3570    9.7450 N   0  0  0  0  0  0  0  0  0  0  0  0
  -10.5620    5.6840    9.7600 C   0  0  0  0  0  0  0  0  0  0  0  0
  -11.5770    5.6820   10.5960 N   0  0  0  0  0  0  0  0  0  0  0  0
  -12.4690    4.7490   10.1080 N   0  0  0  0  0  0  0  0  0  0  0  0
  -12.0160    4.1880    8.9920 N   0  0  0  0  0  0  0  0  0  0  0  0
  -10.8400    4.7900    8.7610 N   0  0  0  0  0  0  0  0  0  0  0  0
   -9.9950    4.4790    7.6090 C   0  0  0  0  0  0  0  0  0  0  0  0
   -8.6630    5.2070    7.7200 C   0  0  0  0  0  0  0  0  0  0  0  0
  -10.7490    4.8610    6.3730 C   0  0  0  0  0  0  0  0  0  0  0  0
  -11.0350    6.2020    6.1170 C   0  0  0  0  0  0  0  0  0  0  0  0
  -11.7370    6.5580    4.9650 C   0  0  0  0  0  0  0  0  0  0  0  0
  -12.1550    5.5730    4.0710 C   0  0  0  0  0  0  0  0  0  0  0  0
  -11.8700    4.2310    4.3270 C   0  0  0  0  0  0  0  0  0  0  0  0
  -11.1660    3.8760    5.4790 C   0  0  0  0  0  0  0  0  0  0  0  0
  -12.0160    7.8660    4.7150 O   0  0  0  0  0  0  0  0  0  0  0  0
   -6.8990    7.6510    9.7710 O   0  0  0  0  0  0  0  0  0  0  0  0
   -6.8712    2.9448    5.5736 C   0  0  0  0  0  0  0  0  0  0  0  0
   -7.0075    1.9934    4.5617 C   0  0  0  0  0  0  0  0  0  0  0  0
   -8.0581    2.0876    3.6491 C   0  0  0  0  0  0  0  0  0  0  0  0
   -8.9767    3.1383    3.7376 C   0  0  0  0  0  0  0  0  0  0  0  0
  -10.2722    3.2259    2.5499 Cl  0  0  0  0  0  0  0  0  0  0  0  0
   -8.8477    4.1048    4.7539 C   0  0  0  0  0  0  0  0  0  0  0  0
   -9.9716    5.4659    4.8056 Cl  0  0  0  0  0  0  0  0  0  0  0  0
  1  3  4  0
  1 14  4  0
  1  2  1  0
  3  4  4  0
  4  5  4  0
  5  6  4  0
  5 22  1  0
  6  7  1  0
  6 14  4  0
  7  8  1  0
  8  9  4  0
  8 12  4  0
  9 10  4  0
 10 11  4  0
 11 12  4  0
 12 13  1  0
 13 14  1  0
 13 15  1  6
 15 16  4  0
 15 20  4  0
 16 17  4  0
 17 18  4  0
 17 21  1  0
 18 19  4  0
 19 20  4  0
 23 24  4  0
 24 25  4  0
 25 26  4  0
 26 27  1  0
 26 28  4  0
 28 29  1  0
  2 23  4  0
  2 28  4  0
M  END
$$$$

     RDKit          3D

 35 41  0  0  0  0  0  0  0  0999 V2000
   -7.6410    4.9930    6.8080 C   0  0  0  0  0  0  0  0  0  1  0  0
   -7.7310    4.0530    5.7140 C   0  0  0  0  0  0  0  0  0  2  0  0
   -6.4520    5.6300    6.8680 N   0  0  0  0  0  0  0  0  0  0  0  0
   -6.2260    6.5240    7.8670 N   0  0  0  0  0  0  0  0  0  0  0  0
   -7.1930    6.7500    8.7820 C   0  0  0  0  0  0  0  0  0  0  0  0
   -8.4240    6.1170    8.7580 C   0  0  0  0  0  0  0  0  0  0  0  0
   -9.3950    6.3570    9.7450 N   0  0  0  0  0  0  0  0  0  0  0  0
  -10.5620    5.6840    9.7600 C   0  0  0  0  0  0  0  0  0  0  0  0
  -11.5770    5.6820   10.5960 N   0  0  0  0  0  0  0  0  0  0  0  0
  -12.4690    4.7490   10.1080 N   0  0  0  0  0  0  0  0  0  0  0  0
  -12.0160    4.1880    8.9920 N   0  0  0  0  0  0  0  0  0  0  0  0
  -10.8400    4.7900    8.7610 N   0  0  0  0  0  0  0  0  0  0  0  0
   -9.9950    4.4790    7.6090 C   0  0  0  0  0  0  0  0  0  0  0  0
   -8.6630    5.2070    7.7200 C   0  0  0  0  0  0  0  0  0  0  0  0
  -10.7490    4.8610    6.3730 C   0  0  0  0  0  0  0  0  0  0  0  0
  -11.0350    6.2020    6.1170 C   0  0  0  0  0  0  0  0  0  0  0  0
  -11.7370    6.5580    4.9650 C   0  0  0  0  0  0  0  0  0  0  0  0
  -12.1550    5.5730    4.0710 C   0  0  0  0  0  0  0  0  0  0  0  0
  -11.8700    4.2310    4.3270 C   0  0  0  0  0  0  0  0  0  0  0  0
  -11.1660    3.8760    5.4790 C   0  0  0  0  0  0  0  0  0  0  0  0
  -12.0160    7.8660    4.7150 O   0  0  0  0  0  0  0  0  0  0  0  0
   -6.8990    7.6510    9.7710 O   0  0  0  0  0  0  0  0  0  0  0  0
   -6.9766    2.8583    5.6931 C   0  0  0  0  0  0  0  0  0  0  0  0
   -7.1244    1.8777    4.7143 C   0  0  0  0  0  0  0  0  0  0  0  0
   -8.0698    2.0350    3.6983 C   0  0  0  0  0  0  0  0  0  0  0  0
   -8.8598    3.2001    3.6452 C   0  0  0  0  0  0  0  0  0  0  0  0
   -8.7272    4.1971    4.6435 C   0  0  0  0  0  0  0  0  0  0  0  0
   -9.6525    5.4041    4.6512 C   0  0  0  0  0  0  0  0  0  0  0  0
  -10.3235    5.6757    3.2996 C   0  0  0  0  0  0  0  0  0  0  0  0
  -10.8747    4.3841    2.6964 C   0  0  0  0  0  0  0  0  0  0  0  0
   -9.7226    3.4210    2.4163 C   0  0  0  0  0  0  0  0  0  0  0  0
  -10.2297    2.1857    1.9085 O   0  0  0  0  0  0  0  0  0  0  0  0
   -9.4357    1.0385    1.9045 C   0  0  0  0  0  0  0  0  0  0  0  0
   -9.7626    0.0438    1.2062 O   0  0  0  0  0  0  0  0  0  0  0  0
   -8.2758    0.9905    2.7372 N   0  0  0  0  0  0  0  0  0  0  0  0
  1  3  4  0
  1 14  4  0
  1  2  1  0
  3  4  4  0
  4  5  4  0
  5  6  4  0
  5 22  1  0
  6  7  1  0
  6 14  4  0
  7  8  1  0
  8  9  4  0
  8 12  4  0
  9 10  4  0
 10 11  4  0
 11 12  4  0
 12 13  1  0
 13 14  1  0
 13 15  1  6
 15 16  4  0
 15 20  4  0
 16 17  4  0
 17 18  4  0
 17 21  1  0
 18 19  4  0
 19 20  4  0
 23 24  4  0
 24 25  4  0
 25 26  4  0
 26 27  4  0
 27 28  1  0
 28 29  1  0
 29 30  1  0
 30 31  1  0
 31 32  1  0
 32 33  1  0
 33 34  2  0
 33 35  1  0
 35 25  1  0
 31 26  1  0
  2 23  4  0
  2 27  4  0
M  END
$$$$

     RDKit          3D

 29 33  0  0  0  0  0  0  0  0999 V2000
   -7.6410    4.9930    6.8080 C   0  0  0  0  0  0  0  0  0  1  0  0
   -7.7310    4.0530    5.7140 C   0  0  0  0  0  0  0  0  0  2  0  0
   -6.4520    5.6300    6.8680 N   0  0  0  0  0  0  0  0  0  0  0  0
   -6.2260    6.5240    7.8670 N   0  0  0  0  0  0  0  0  0  0  0  0
   -7.1930    6.7500    8.7820 C   0  0  0  0  0  0  0  0  0  0  0  0
   -8.4240    6.1170    8.7580 C   0  0  0  0  0  0  0  0  0  0  0  0
   -9.3950    6.3570    9.7450 N   0  0  0  0  0  0  0  0  0  0  0  0
  -10.5620    5.6840    9.7600 C   0  0  0  0  0  0  0  0  0  0  0  0
  -11.5770    5.6820   10.5960 N   0  0  0  0  0  0  0  0  0  0  0  0
  -12.4690    4.7490   10.1080 N   0  0  0  0  0  0  0  0  0  0  0  0
  -12.0160    4.1880    8.9920 N   0  0  0  0  0  0  0  0  0  0  0  0
  -10.8400    4.7900    8.7610 N   0  0  0  0  0  0  0  0  0  0  0  0
   -9.9950    4.4790    7.6090 C   0  0  0  0  0  0  0  0  0  0  0  0
   -8.6630    5.2070    7.7200 C   0  0  0  0  0  0  0  0  0  0  0  0
  -10.7490    4.8610    6.3730 C   0  0  0  0  0  0  0  0  0  0  0  0
  -11.0350    6.2020    6.1170 C   0  0  0  0  0  0  0  0  0  0  0  0
  -11.7370    6.5580    4.9650 C   0  0  0  0  0  0  0  0  0  0  0  0
  -12.1550    5.5730    4.0710 C   0  0  0  0  0  0  0  0  0  0  0  0
  -11.8700    4.2310    4.3270 C   0  0  0  0  0  0  0  0  0  0  0  0
  -11.1660    3.8760    5.4790 C   0  0  0  0  0  0  0  0  0  0  0  0
  -12.0160    7.8660    4.7150 O   0  0  0  0  0  0  0  0  0  0  0  0
   -6.8990    7.6510    9.7710 O   0  0  0  0  0  0  0  0  0  0  0  0
   -6.8595    2.9750    5.5127 C   0  0  0  0  0  0  0  0  0  0  0  0
   -7.0527    2.0148    4.5152 C   0  0  0  0  0  0  0  0  0  0  0  0
   -8.1745    2.0837    3.6848 C   0  0  0  0  0  0  0  0  0  0  0  0
   -8.3599    1.1525    2.7170 F   0  0  0  0  0  0  0  0  0  0  0  0
   -9.0993    3.1195    3.8446 C   0  0  0  0  0  0  0  0  0  0  0  0
   -8.9117    4.0826    4.8417 C   0  0  0  0  0  0  0  0  0  0  0  0
   -9.7894    5.1123    4.9388 F   0  0  0  0  0  0  0  0  0  0  0  0
  1  3  4  0
  1 14  4  0
  1  2  1  0
  3  4  4  0
  4  5  4  0
  5  6  4  0
  5 22  1  0
  6  7  1  0
  6 14  4  0
  7  8  1  0
  8  9  4  0
  8 12  4  0
  9 10  4  0
 10 11  4  0
 11 12  4  0
 12 13  1  0
 13 14  1  0
 13 15  1  6
 15 16  4  0
 15 20  4  0
 16 17  4  0
 17 18  4  0
 17 21  1  0
 18 19  4  0
 19 20  4  0
 23 24  4  0
 24 25  4  0
 25 26  1  0
 25 27  4  0
 27 28  4  0
 28 29  1  0
  2 23  4  0
  2 28  4  0
M  END
$$$$

     RDKit          3D

 45 51  0  0  0  0  0  0  0  0999 V2000
   -7.6410    4.9930    6.8080 C   0  0  0  0  0  0  0  0  0  1  0  0
   -7.7310    4.0530    5.7140 C   0  0  0  0  0  0  0  0  0  2  0  0
   -6.4520    5.6300    6.8680 N   0  0  0  0  0  0  0  0  0  0  0  0
   -6.2260    6.5240    7.8670 N   0  0  0  0  0  0  0  0  0  0  0  0
   -7.1930    6.7500    8.7820 C   0  0  0  0  0  0  0  0  0  0  0  0
   -8.4240    6.1170    8.7580 C   0  0  0  0  0  0  0  0  0  0  0  0
   -9.3950    6.3570    9.7450 N   0  0  0  0  0  0  0  0  0  0  0  0
  -10.5620    5.6840    9.7600 C   0  0  0  0  0  0  0  0  0  0  0  0
  -11.5770    5.6820   10.5960 N   0  0  0  0  0  0  0  0  0  0  0  0
  -12.4690    4.7490   10.1080 N   0  0  0  0  0  0  0  0  0  0  0  0
  -12.0160    4.1880    8.9920 N   0  0  0  0  0  0  0  0  0  0  0  0
  -10.8400    4.7900    8.7610 N   0  0  0  0  0  0  0  0  0  0  0  0
   -9.9950    4.4790    7.6090 C   0  0  0  0  0  0  0  0  0  0  0  0
   -8.6630    5.2070    7.7200 C   0  0  0  0  0  0  0  0  0  0  0  0
  -10.7490    4.8610    6.3730 C   0  0  0  0  0  0  0  0  0  0  0  0
  -11.0350    6.2020    6.1170 C   0  0  0  0  0  0  0  0  0  0  0  0
  -11.7370    6.5580    4.9650 C   0  0  0  0  0  0  0  0  0  0  0  0
  -12.1550    5.5730    4.0710 C   0  0  0  0  0  0  0  0  0  0  0  0
  -11.8700    4.2310    4.3270 C   0  0  0  0  0  0  0  0  0  0  0  0
  -11.1660    3.8760    5.4790 C   0  0  0  0  0  0  0  0  0  0  0  0
  -12.0160    7.8660    4.7150 O   0  0  0  0  0  0  0  0  0  0  0  0
   -6.8990    7.6510    9.7710 O   0  0  0  0  0  0  0  0  0  0  0  0
   -6.8660    3.0605    5.4112 N   0  0  0  0  0  0  0  0  0  0  0  0
   -7.2968    2.4007    4.3463 N   0  0  0  0  0  0  0  0  0  0  0  0
   -8.4663    2.9601    3.9872 C   0  0  0  0  0  0  0  0  0  0  0  0
   -9.3926    2.4584    2.5230 S   0  0  0  0  0  0  0  0  0  0  0  0
   -8.8127    3.9689    4.8126 N   0  0  0  0  0  0  0  0  0  0  0  0
   -9.8815    4.9502    4.6049 C   0  0  0  0  0  0  0  0  0  0  0  0
   -9.3913    6.0690    3.7351 C   0  0  0  0  0  0  0  0  0  0  0  0
   -8.5021    6.8479    4.1726 O   0  0  0  0  0  0  0  0  0  0  0  0
   -9.9134    6.2405    2.4121 N   0  0  0  0  0  0  0  0  0  0  0  0
   -9.4998    7.3078    1.5945 N   0  0  0  0  0  0  0  0  0  0  0  0
   -9.9383    7.4263    0.2357 C   0  0  0  0  0  0  0  0  0  0  0  0
  -10.1343    8.5734   -0.2463 O   0  0  0  0  0  0  0  0  0  0  0  0
  -10.1457    6.2448   -0.6222 C   0  0  0  0  0  0  0  0  0  0  0  0
   -9.5382    5.0080   -0.4020 C   0  0  0  0  0  0  0  0  0  0  0  0
  -10.0173    3.9683   -1.6332 S   0  0  0  0  0  0  0  0  0  0  0  0
  -10.9655    5.1320   -2.4001 C   0  0  0  0  0  0  0  0  0  0  0  0
  -11.7253    4.9304   -3.6083 N   0  0  0  0  0  0  0  0  0  0  0  0
  -11.8422    3.5867   -4.1913 C   0  0  0  0  0  0  0  0  0  0  0  0
  -12.2040    3.6730   -5.6772 C   0  0  0  0  0  0  0  0  0  0  0  0
  -13.3137    4.5247   -5.8785 O   0  0  0  0  0  0  0  0  0  0  0  0
  -12.9575    5.8485   -5.5362 C   0  0  0  0  0  0  0  0  0  0  0  0
  -12.6767    5.9638   -4.0349 C   0  0  0  0  0  0  0  0  0  0  0  0
  -10.9244    6.3094   -1.7368 N   0  0  0  0  0  0  0  0  0  0  0  0
  1  3  4  0
  1 14  4  0
  1  2  1  0
  3  4  4  0
  4  5  4  0
  5  6  4  0
  5 22  1  0
  6  7  1  0
  6 14  4  0
  7  8  1  0
  8  9  4  0
  8 12  4  0
  9 10  4  0
 10 11  4  0
 11 12  4  0
 12 13  1  0
 13 14  1  0
 13 15  1  6
 15 16  4  0
 15 20  4  0
 16 17  4  0
 17 18  4  0
 17 21  1  0
 18 19  4  0
 19 20  4  0
 23 24  4  0
 24 25  4  0
 25 26  1  0
 25 27  4  0
 27 28  1  0
 28 29  1  0
 29 30  2  0
 29 31  1  0
 31 32  1  0
 32 33  1  0
 33 34  2  0
 33 35  1  0
 35 36  4  0
 36 37  4  0
 37 38  4  0
 38 39  1  0
 39 40  1  0
 40 41  1  0
 41 42  1  0
 42 43  1  0
 43 44  1  0
 38 45  4  0
 45 35  4  0
 44 39  1  0
  2 23  4  0
  2 27  4  0
M  CHG  1  26  -1
M  END
$$$$

     RDKit          3D

 30 34  0  0  0  0  0  0  0  0999 V2000
   -7.6410    4.9930    6.8080 C   0  0  0  0  0  0  0  0  0  1  0  0
   -7.7310    4.0530    5.7140 C   0  0  0  0  0  0  0  0  0  2  0  0
   -6.4520    5.6300    6.8680 N   0  0  0  0  0  0  0  0  0  0  0  0
   -6.2260    6.5240    7.8670 N   0  0  0  0  0  0  0  0  0  0  0  0
   -7.1930    6.7500    8.7820 C   0  0  0  0  0  0  0  0  0  0  0  0
   -8.4240    6.1170    8.7580 C   0  0  0  0  0  0  0  0  0  0  0  0
   -9.3950    6.3570    9.7450 N   0  0  0  0  0  0  0  0  0  0  0  0
  -10.5620    5.6840    9.7600 C   0  0  0  0  0  0  0  0  0  0  0  0
  -11.5770    5.6820   10.5960 N   0  0  0  0  0  0  0  0  0  0  0  0
  -12.4690    4.7490   10.1080 N   0  0  0  0  0  0  0  0  0  0  0  0
  -12.0160    4.1880    8.9920 N   0  0  0  0  0  0  0  0  0  0  0  0
  -10.8400    4.7900    8.7610 N   0  0  0  0  0  0  0  0  0  0  0  0
   -9.9950    4.4790    7.6090 C   0  0  0  0  0  0  0  0  0  0  0  0
   -8.6630    5.2070    7.7200 C   0  0  0  0  0  0  0  0  0  0  0  0
  -10.7490    4.8610    6.3730 C   0  0  0  0  0  0  0  0  0  0  0  0
  -11.0350    6.2020    6.1170 C   0  0  0  0  0  0  0  0  0  0  0  0
  -11.7370    6.5580    4.9650 C   0  0  0  0  0  0  0  0  0  0  0  0
  -12.1550    5.5730    4.0710 C   0  0  0  0  0  0  0  0  0  0  0  0
  -11.8700    4.2310    4.3270 C   0  0  0  0  0  0  0  0  0  0  0  0
  -11.1660    3.8760    5.4790 C   0  0  0  0  0  0  0  0  0  0  0  0
  -12.0160    7.8660    4.7150 O   0  0  0  0  0  0  0  0  0  0  0  0
   -6.8990    7.6510    9.7710 O   0  0  0  0  0  0  0  0  0  0  0  0
   -6.9829    2.8596    5.6430 C   0  0  0  0  0  0  0  0  0  0  0  0
   -7.1966    1.8617    4.6910 C   0  0  0  0  0  0  0  0  0  0  0  0
   -8.2389    1.9840    3.7731 C   0  0  0  0  0  0  0  0  0  0  0  0
   -9.0609    3.1126    3.7924 C   0  0  0  0  0  0  0  0  0  0  0  0
   -8.8510    4.1377    4.7321 C   0  0  0  0  0  0  0  0  0  0  0  0
   -9.6778    5.3154    4.6819 N   0  0  0  0  0  0  0  0  0  0  0  0
   -9.2175    6.4319    4.9975 O   0  0  0  0  0  0  0  0  0  0  0  0
  -10.9384    5.2505    4.1339 O   0  0  0  0  0  0  0  0  0  0  0  0
  1  3  4  0
  1 14  4  0
  1  2  1  0
  3  4  4  0
  4  5  4  0
  5  6  4  0
  5 22  1  0
  6  7  1  0
  6 14  4  0
  7  8  1  0
  8  9  4  0
  8 12  4  0
  9 10  4  0
 10 11  4  0
 11 12  4  0
 12 13  1  0
 13 14  1  0
 13 15  1  6
 15 16  4  0
 15 20  4  0
 16 17  4  0
 17 18  4  0
 17 21  1  0
 18 19  4  0
 19 20  4  0
 23 24  4  0
 24 25  4  0
 25 26  4  0
 26 27  4  0
 27 28  1  0
 28 29  2  0
 28 30  1  0
  2 23  4  0
  2 27  4  0
M  CHG  2  28   1  30  -1
M  END
$$$$

     RDKit          3D

 39 46  0  0  0  0  0  0  0  0999 V2000
   -7.6410    4.9930    6.8080 C   0  0  0  0  0  0  0  0  0  1  0  0
   -7.7310    4.0530    5.7140 C   0  0  0  0  0  0  0  0  0  2  0  0
   -6.4520    5.6300    6.8680 N   0  0  0  0  0  0  0  0  0  0  0  0
   -6.2260    6.5240    7.8670 N   0  0  0  0  0  0  0  0  0  0  0  0
   -7.1930    6.7500    8.7820 C   0  0  0  0  0  0  0  0  0  0  0  0
   -8.4240    6.1170    8.7580 C   0  0  0  0  0  0  0  0  0  0  0  0
   -9.3950    6.3570    9.7450 N   0  0  0  0  0  0  0  0  0  0  0  0
  -10.5620    5.6840    9.7600 C   0  0  0  0  0  0  0  0  0  0  0  0
  -11.5770    5.6820   10.5960 N   0  0  0  0  0  0  0  0  0  0  0  0
  -12.4690    4.7490   10.1080 N   0  0  0  0  0  0  0  0  0  0  0  0
  -12.0160    4.1880    8.9920 N   0  0  0  0  0  0  0  0  0  0  0  0
  -10.8400    4.7900    8.7610 N   0  0  0  0  0  0  0  0  0  0  0  0
   -9.9950    4.4790    7.6090 C   0  0  0  0  0  0  0  0  0  0  0  0
   -8.6630    5.2070    7.7200 C   0  0  0  0  0  0  0  0  0  0  0  0
  -10.7490    4.8610    6.3730 C   0  0  0  0  0  0  0  0  0  0  0  0
  -11.0350    6.2020    6.1170 C   0  0  0  0  0  0  0  0  0  0  0  0
  -11.7370    6.5580    4.9650 C   0  0  0  0  0  0  0  0  0  0  0  0
  -12.1550    5.5730    4.0710 C   0  0  0  0  0  0  0  0  0  0  0  0
  -11.8700    4.2310    4.3270 C   0  0  0  0  0  0  0  0  0  0  0  0
  -11.1660    3.8760    5.4790 C   0  0  0  0  0  0  0  0  0  0  0  0
  -12.0160    7.8660    4.7150 O   0  0  0  0  0  0  0  0  0  0  0  0
   -6.8990    7.6510    9.7710 O   0  0  0  0  0  0  0  0  0  0  0  0
   -6.8312    3.1078    5.3461 N   0  0  0  0  0  0  0  0  0  0  0  0
   -7.3265    2.3591    4.3639 N   0  0  0  0  0  0  0  0  0  0  0  0
   -8.5569    2.8438    4.1252 C   0  0  0  0  0  0  0  0  0  0  0  0
   -8.8739    3.8458    4.9167 N   0  0  0  0  0  0  0  0  0  0  0  0
  -10.1922    4.4275    4.7419 C   0  0  0  0  0  0  0  0  0  0  0  0
  -10.1057    5.7377    3.9386 C   0  0  0  0  0  0  0  0  0  0  0  0
   -9.4057    7.0908    4.9408 S   0  0  0  0  0  0  0  0  0  0  0  0
   -9.4350    8.2620    3.5886 C   0  0  0  0  0  0  0  0  0  0  0  0
   -8.4110    8.4445    2.7337 N   0  0  0  0  0  0  0  0  0  0  0  0
   -8.9041    9.4042    1.9203 C   0  0  0  0  0  0  0  0  0  0  0  0
   -8.1632    9.9453    0.7385 C   0  0  0  0  0  0  0  0  0  0  0  0
   -7.9900   11.4565    0.7383 C   0  0  0  0  0  0  0  0  0  0  0  0
   -6.8103   10.5578    1.0672 C   0  0  0  0  0  0  0  0  0  0  0  0
  -10.1594    9.7737    2.2450 N   0  0  0  0  0  0  0  0  0  0  0  0
  -10.4800    9.0527    3.3025 N   0  0  0  0  0  0  0  0  0  0  0  0
  -10.9815    3.3505    3.9434 C   0  0  0  0  0  0  0  0  0  0  0  0
   -9.8045    2.2550    3.0239 S   0  0  0  0  0  0  0  0  0  0  0  0
  1  3  4  0
  1 14  4  0
  1  2  1  0
  3  4  4  0
  4  5  4  0
  5  6  4  0
  5 22  1  0
  6  7  1  0
  6 14  4  0
  7  8  1  0
  8  9  4  0
  8 12  4  0
  9 10  4  0
 10 11  4  0
 11 12  4  0
 12 13  1  0
 13 14  1  0
 13 15  1  6
 15 16  4  0
 15 20  4  0
 16 17  4  0
 17 18  4  0
 17 21  1  0
 18 19  4  0
 19 20  4  0
 23 24  4  0
 24 25  4  0
 25 26  4  0
 26 27  1  0
 27 28  1  0
 28 29  1  0
 29 30  1  0
 30 31  4  0
 31 32  4  0
 32 33  1  0
 33 34  1  0
 34 35  1  0
 32 36  4  0
 36 37  4  0
 27 38  1  0
 38 39  1  0
 37 30  4  0
 39 25  1  0
 35 33  1  0
  2 23  4  0
  2 26  4  0
M  END
$$$$

     RDKit          3D

 28 32  0  0  0  0  0  0  0  0999 V2000
   -7.6410    4.9930    6.8080 C   0  0  0  0  0  0  0  0  0  1  0  0
   -7.7310    4.0530    5.7140 C   0  0  0  0  0  0  0  0  0  2  0  0
   -6.4520    5.6300    6.8680 N   0  0  0  0  0  0  0  0  0  0  0  0
   -6.2260    6.5240    7.8670 N   0  0  0  0  0  0  0  0  0  0  0  0
   -7.1930    6.7500    8.7820 C   0  0  0  0  0  0  0  0  0  0  0  0
   -8.4240    6.1170    8.7580 C   0  0  0  0  0  0  0  0  0  0  0  0
   -9.3950    6.3570    9.7450 N   0  0  0  0  0  0  0  0  0  0  0  0
  -10.5620    5.6840    9.7600 C   0  0  0  0  0  0  0  0  0  0  0  0
  -11.5770    5.6820   10.5960 N   0  0  0  0  0  0  0  0  0  0  0  0
  -12.4690    4.7490   10.1080 N   0  0  0  0  0  0  0  0  0  0  0  0
  -12.0160    4.1880    8.9920 N   0  0  0  0  0  0  0  0  0  0  0  0
  -10.8400    4.7900    8.7610 N   0  0  0  0  0  0  0  0  0  0  0  0
   -9.9950    4.4790    7.6090 C   0  0  0  0  0  0  0  0  0  0  0  0
   -8.6630    5.2070    7.7200 C   0  0  0  0  0  0  0  0  0  0  0  0
  -10.7490    4.8610    6.3730 C   0  0  0  0  0  0  0  0  0  0  0  0
  -11.0350    6.2020    6.1170 C   0  0  0  0  0  0  0  0  0  0  0  0
  -11.7370    6.5580    4.9650 C   0  0  0  0  0  0  0  0  0  0  0  0
  -12.1550    5.5730    4.0710 C   0  0  0  0  0  0  0  0  0  0  0  0
  -11.8700    4.2310    4.3270 C   0  0  0  0  0  0  0  0  0  0  0  0
  -11.1660    3.8760    5.4790 C   0  0  0  0  0  0  0  0  0  0  0  0
  -12.0160    7.8660    4.7150 O   0  0  0  0  0  0  0  0  0  0  0  0
   -6.8990    7.6510    9.7710 O   0  0  0  0  0  0  0  0  0  0  0  0
   -6.7665    3.1664    5.3470 N   0  0  0  0  0  0  0  0  0  0  0  0
   -7.0962    2.3510    4.3222 C   0  0  0  0  0  0  0  0  0  0  0  0
   -6.1966    1.2856    3.7965 C   0  0  0  0  0  0  0  0  0  0  0  0
   -8.6714    2.6163    3.8019 S   0  0  0  0  0  0  0  0  0  0  0  0
   -8.9401    3.8554    4.9079 C   0  0  0  0  0  0  0  0  0  0  0  0
  -10.2137    4.6365    4.9959 C   0  0  0  0  0  0  0  0  0  0  0  0
  1  3  4  0
  1 14  4  0
  1  2  1  0
  3  4  4  0
  4  5  4  0
  5  6  4  0
  5 22  1  0
  6  7  1  0
  6 14  4  0
  7  8  1  0
  8  9  4  0
  8 12  4  0
  9 10  4  0
 10 11  4  0
 11 12  4  0
 12 13  1  0
 13 14  1  0
 13 15  1  6
 15 16  4  0
 15 20  4  0
 16 17  4  0
 17 18  4  0
 17 21  1  0
 18 19  4  0
 19 20  4  0
 23 24  4  0
 24 25  1  0
 24 26  4  0
 26 27  4  0
 27 28  1  0
  2 23  4  0
  2 27  4  0
M  END
$$$$

     RDKit          3D

 29 33  0  0  0  0  0  0  0  0999 V2000
   -7.6410    4.9930    6.8080 C   0  0  0  0  0  0  0  0  0  1  0  0
   -7.7310    4.0530    5.7140 C   0  0  0  0  0  0  0  0  0  2  0  0
   -6.4520    5.6300    6.8680 N   0  0  0  0  0  0  0  0  0  0  0  0
   -6.2260    6.5240    7.8670 N   0  0  0  0  0  0  0  0  0  0  0  0
   -7.1930    6.7500    8.7820 C   0  0  0  0  0  0  0  0  0  0  0  0
   -8.4240    6.1170    8.7580 C   0  0  0  0  0  0  0  0  0  0  0  0
   -9.3950    6.3570    9.7450 N   0  0  0  0  0  0  0  0  0  0  0  0
  -10.5620    5.6840    9.7600 C   0  0  0  0  0  0  0  0  0  0  0  0
  -11.5770    5.6820   10.5960 N   0  0  0  0  0  0  0  0  0  0  0  0
  -12.4690    4.7490   10.1080 N   0  0  0  0  0  0  0  0  0  0  0  0
  -12.0160    4.1880    8.9920 N   0  0  0  0  0  0  0  0  0  0  0  0
  -10.8400    4.7900    8.7610 N   0  0  0  0  0  0  0  0  0  0  0  0
   -9.9950    4.4790    7.6090 C   0  0  0  0  0  0  0  0  0  0  0  0
   -8.6630    5.2070    7.7200 C   0  0  0  0  0  0  0  0  0  0  0  0
  -10.7490    4.8610    6.3730 C   0  0  0  0  0  0  0  0  0  0  0  0
  -11.0350    6.2020    6.1170 C   0  0  0  0  0  0  0  0  0  0  0  0
  -11.7370    6.5580    4.9650 C   0  0  0  0  0  0  0  0  0  0  0  0
  -12.1550    5.5730    4.0710 C   0  0  0  0  0  0  0  0  0  0  0  0
  -11.8700    4.2310    4.3270 C   0  0  0  0  0  0  0  0  0  0  0  0
  -11.1660    3.8760    5.4790 C   0  0  0  0  0  0  0  0  0  0  0  0
  -12.0160    7.8660    4.7150 O   0  0  0  0  0  0  0  0  0  0  0  0
   -6.8990    7.6510    9.7710 O   0  0  0  0  0  0  0  0  0  0  0  0
   -8.9163    4.0487    4.8589 C   0  0  0  0  0  0  0  0  0  0  0  0
   -9.8601    5.0126    5.0103 F   0  0  0  0  0  0  0  0  0  0  0  0
   -9.0660    3.1115    3.8318 C   0  0  0  0  0  0  0  0  0  0  0  0
   -8.0856    2.1404    3.6185 C   0  0  0  0  0  0  0  0  0  0  0  0
   -6.9479    2.1066    4.4273 C   0  0  0  0  0  0  0  0  0  0  0  0
   -6.7891    3.0388    5.4578 C   0  0  0  0  0  0  0  0  0  0  0  0
   -5.6820    2.9758    6.2408 F   0  0  0  0  0  0  0  0  0  0  0  0
  1  3  4  0
  1 14  4  0
  1  2  1  0
  3  4  4  0
  4  5  4  0
  5  6  4  0
  5 22  1  0
  6  7  1  0
  6 14  4  0
  7  8  1  0
  8  9  4  0
  8 12  4  0
  9 10  4  0
 10 11  4  0
 11 12  4  0
 12 13  1  0
 13 14  1  0
 13 15  1  6
 15 16  4  0
 15 20  4  0
 16 17  4  0
 17 18  4  0
 17 21  1  0
 18 19  4  0
 19 20  4  0
 23 24  1  0
 23 25  4  0
 25 26  4  0
 26 27  4  0
 27 28  4  0
 28 29  1  0
  2 23  4  0
  2 28  4  0
M  END
$$$$

     RDKit          3D

 39 44  0  0  0  0  0  0  0  0999 V2000
   -7.6410    4.9930    6.8080 C   0  0  0  0  0  0  0  0  0  1  0  0
   -7.7310    4.0530    5.7140 C   0  0  0  0  0  0  0  0  0  2  0  0
   -6.4520    5.6300    6.8680 N   0  0  0  0  0  0  0  0  0  0  0  0
   -6.2260    6.5240    7.8670 N   0  0  0  0  0  0  0  0  0  0  0  0
   -7.1930    6.7500    8.7820 C   0  0  0  0  0  0  0  0  0  0  0  0
   -8.4240    6.1170    8.7580 C   0  0  0  0  0  0  0  0  0  0  0  0
   -9.3950    6.3570    9.7450 N   0  0  0  0  0  0  0  0  0  0  0  0
  -10.5620    5.6840    9.7600 C   0  0  0  0  0  0  0  0  0  0  0  0
  -11.5770    5.6820   10.5960 N   0  0  0  0  0  0  0  0  0  0  0  0
  -12.4690    4.7490   10.1080 N   0  0  0  0  0  0  0  0  0  0  0  0
  -12.0160    4.1880    8.9920 N   0  0  0  0  0  0  0  0  0  0  0  0
  -10.8400    4.7900    8.7610 N   0  0  0  0  0  0  0  0  0  0  0  0
   -9.9950    4.4790    7.6090 C   0  0  0  0  0  0  0  0  0  0  0  0
   -8.6630    5.2070    7.7200 C   0  0  0  0  0  0  0  0  0  0  0  0
  -10.7490    4.8610    6.3730 C   0  0  0  0  0  0  0  0  0  0  0  0
  -11.0350    6.2020    6.1170 C   0  0  0  0  0  0  0  0  0  0  0  0
  -11.7370    6.5580    4.9650 C   0  0  0  0  0  0  0  0  0  0  0  0
  -12.1550    5.5730    4.0710 C   0  0  0  0  0  0  0  0  0  0  0  0
  -11.8700    4.2310    4.3270 C   0  0  0  0  0  0  0  0  0  0  0  0
  -11.1660    3.8760    5.4790 C   0  0  0  0  0  0  0  0  0  0  0  0
  -12.0160    7.8660    4.7150 O   0  0  0  0  0  0  0  0  0  0  0  0
   -6.8990    7.6510    9.7710 O   0  0  0  0  0  0  0  0  0  0  0  0
   -6.8556    3.0680    5.4079 N   0  0  0  0  0  0  0  0  0  0  0  0
   -7.2858    2.4308    4.3315 N   0  0  0  0  0  0  0  0  0  0  0  0
   -8.4484    2.9884    3.9573 C   0  0  0  0  0  0  0  0  0  0  0  0
   -9.2585    2.5646    2.5959 S   0  0  0  0  0  0  0  0  0  0  0  0
   -8.8054    3.9842    4.7972 N   0  0  0  0  0  0  0  0  0  0  0  0
   -9.8741    4.9721    4.6079 C   0  0  0  0  0  0  0  0  0  0  0  0
   -9.3352    6.1980    3.8655 C   0  0  0  0  0  0  0  0  0  0  0  0
  -10.4411    7.1765    3.5795 C   0  0  0  0  0  0  0  0  0  0  0  0
  -10.4704    8.2627    4.2199 O   0  0  0  0  0  0  0  0  0  0  0  0
  -11.4714    6.8881    2.6127 N   0  0  0  0  0  0  0  0  0  0  0  0
  -11.1775    6.0493    1.4386 C   0  0  0  0  0  0  0  0  0  0  0  0
  -12.2094    6.2725    0.3181 C   0  0  0  0  0  0  0  0  0  0  0  0
  -11.9140    5.3667   -0.8828 C   0  0  0  0  0  0  0  0  0  0  0  0
  -13.6579    6.0703    0.8207 C   0  0  0  0  0  0  0  0  0  0  0  0
  -13.8847    6.5439    2.2806 C   0  0  0  0  0  0  0  0  0  0  0  0
  -15.2769    7.1622    2.4547 C   0  0  0  0  0  0  0  0  0  0  0  0
  -12.7918    7.5177    2.7517 C   0  0  0  0  0  0  0  0  0  0  0  0
  1  3  4  0
  1 14  4  0
  1  2  1  0
  3  4  4  0
  4  5  4  0
  5  6  4  0
  5 22  1  0
  6  7  1  0
  6 14  4  0
  7  8  1  0
  8  9  4  0
  8 12  4  0
  9 10  4  0
 10 11  4  0
 11 12  4  0
 12 13  1  0
 13 14  1  0
 13 15  1  6
 15 16  4  0
 15 20  4  0
 16 17  4  0
 17 18  4  0
 17 21  1  0
 18 19  4  0
 19 20  4  0
 23 24  4  0
 24 25  4  0
 25 26  2  0
 25 27  4  0
 27 28  1  0
 28 29  1  0
 29 30  1  0
 30 31  2  0
 30 32  1  0
 32 33  1  0
 33 34  1  0
 34 35  1  0
 34 36  1  0
 36 37  1  0
 37 38  1  0
 37 39  1  0
 39 32  1  0
  2 23  4  0
  2 27  4  0
M  END
$$$$

     RDKit          3D

 39 44  0  0  0  0  0  0  0  0999 V2000
   -7.6410    4.9930    6.8080 C   0  0  0  0  0  0  0  0  0  1  0  0
   -7.7310    4.0530    5.7140 C   0  0  0  0  0  0  0  0  0  2  0  0
   -6.4520    5.6300    6.8680 N   0  0  0  0  0  0  0  0  0  0  0  0
   -6.2260    6.5240    7.8670 N   0  0  0  0  0  0  0  0  0  0  0  0
   -7.1930    6.7500    8.7820 C   0  0  0  0  0  0  0  0  0  0  0  0
   -8.4240    6.1170    8.7580 C   0  0  0  0  0  0  0  0  0  0  0  0
   -9.3950    6.3570    9.7450 N   0  0  0  0  0  0  0  0  0  0  0  0
  -10.5620    5.6840    9.7600 C   0  0  0  0  0  0  0  0  0  0  0  0
  -11.5770    5.6820   10.5960 N   0  0  0  0  0  0  0  0  0  0  0  0
  -12.4690    4.7490   10.1080 N   0  0  0  0  0  0  0  0  0  0  0  0
  -12.0160    4.1880    8.9920 N   0  0  0  0  0  0  0  0  0  0  0  0
  -10.8400    4.7900    8.7610 N   0  0  0  0  0  0  0  0  0  0  0  0
   -9.9950    4.4790    7.6090 C   0  0  0  0  0  0  0  0  0  0  0  0
   -8.6630    5.2070    7.7200 C   0  0  0  0  0  0  0  0  0  0  0  0
  -10.7490    4.8610    6.3730 C   0  0  0  0  0  0  0  0  0  0  0  0
  -11.0350    6.2020    6.1170 C   0  0  0  0  0  0  0  0  0  0  0  0
  -11.7370    6.5580    4.9650 C   0  0  0  0  0  0  0  0  0  0  0  0
  -12.1550    5.5730    4.0710 C   0  0  0  0  0  0  0  0  0  0  0  0
  -11.8700    4.2310    4.3270 C   0  0  0  0  0  0  0  0  0  0  0  0
  -11.1660    3.8760    5.4790 C   0  0  0  0  0  0  0  0  0  0  0  0
  -12.0160    7.8660    4.7150 O   0  0  0  0  0  0  0  0  0  0  0  0
   -6.8990    7.6510    9.7710 O   0  0  0  0  0  0  0  0  0  0  0  0
   -6.8646    3.0546    5.4236 N   0  0  0  0  0  0  0  0  0  0  0  0
   -7.3055    2.3984    4.3636 N   0  0  0  0  0  0  0  0  0  0  0  0
   -8.4667    2.9556    3.9846 C   0  0  0  0  0  0  0  0  0  0  0  0
   -9.3150    2.4668    2.6701 S   0  0  0  0  0  0  0  0  0  0  0  0
   -8.8066    3.9797    4.7982 N   0  0  0  0  0  0  0  0  0  0  0  0
   -9.9088    4.9398    4.6362 C   0  0  0  0  0  0  0  0  0  0  0  0
   -9.4044    6.2961    4.1244 C   0  0  0  0  0  0  0  0  0  0  0  0
   -8.9046    6.2104    2.7071 C   0  0  0  0  0  0  0  0  0  0  0  0
   -7.7808    5.6786    2.4963 O   0  0  0  0  0  0  0  0  0  0  0  0
   -9.6502    6.7626    1.6019 N   0  0  0  0  0  0  0  0  0  0  0  0
  -11.1165    6.8496    1.6085 C   0  0  0  0  0  0  0  0  0  0  0  0
  -11.7045    6.2009    0.3416 C   0  0  0  0  0  0  0  0  0  0  0  0
  -11.7647    4.6716    0.4686 C   0  0  0  0  0  0  0  0  0  0  0  0
  -10.9734    6.6730   -0.9395 C   0  0  0  0  0  0  0  0  0  0  0  0
   -9.4281    6.6752   -0.8523 C   0  0  0  0  0  0  0  0  0  0  0  0
   -8.8057    5.2825   -1.0374 C   0  0  0  0  0  0  0  0  0  0  0  0
   -8.9491    7.3369    0.4482 C   0  0  0  0  0  0  0  0  0  0  0  0
  1  3  4  0
  1 14  4  0
  1  2  1  0
  3  4  4  0
  4  5  4  0
  5  6  4  0
  5 22  1  0
  6  7  1  0
  6 14  4  0
  7  8  1  0
  8  9  4  0
  8 12  4  0
  9 10  4  0
 10 11  4  0
 11 12  4  0
 12 13  1  0
 13 14  1  0
 13 15  1  6
 15 16  4  0
 15 20  4  0
 16 17  4  0
 17 18  4  0
 17 21  1  0
 18 19  4  0
 19 20  4  0
 23 24  4  0
 24 25  4  0
 25 26  2  0
 25 27  4  0
 27 28  1  0
 28 29  1  0
 29 30  1  0
 30 31  2  0
 30 32  1  0
 32 33  1  0
 33 34  1  0
 34 35  1  0
 34 36  1  0
 36 37  1  0
 37 38  1  0
 37 39  1  0
 39 32  1  0
  2 23  4  0
  2 27  4  0
M  END
$$$$

     RDKit          3D

 39 44  0  0  0  0  0  0  0  0999 V2000
   -7.6410    4.9930    6.8080 C   0  0  0  0  0  0  0  0  0  1  0  0
   -7.7310    4.0530    5.7140 C   0  0  0  0  0  0  0  0  0  2  0  0
   -6.4520    5.6300    6.8680 N   0  0  0  0  0  0  0  0  0  0  0  0
   -6.2260    6.5240    7.8670 N   0  0  0  0  0  0  0  0  0  0  0  0
   -7.1930    6.7500    8.7820 C   0  0  0  0  0  0  0  0  0  0  0  0
   -8.4240    6.1170    8.7580 C   0  0  0  0  0  0  0  0  0  0  0  0
   -9.3950    6.3570    9.7450 N   0  0  0  0  0  0  0  0  0  0  0  0
  -10.5620    5.6840    9.7600 C   0  0  0  0  0  0  0  0  0  0  0  0
  -11.5770    5.6820   10.5960 N   0  0  0  0  0  0  0  0  0  0  0  0
  -12.4690    4.7490   10.1080 N   0  0  0  0  0  0  0  0  0  0  0  0
  -12.0160    4.1880    8.9920 N   0  0  0  0  0  0  0  0  0  0  0  0
  -10.8400    4.7900    8.7610 N   0  0  0  0  0  0  0  0  0  0  0  0
   -9.9950    4.4790    7.6090 C   0  0  0  0  0  0  0  0  0  0  0  0
   -8.6630    5.2070    7.7200 C   0  0  0  0  0  0  0  0  0  0  0  0
  -10.7490    4.8610    6.3730 C   0  0  0  0  0  0  0  0  0  0  0  0
  -11.0350    6.2020    6.1170 C   0  0  0  0  0  0  0  0  0  0  0  0
  -11.7370    6.5580    4.9650 C   0  0  0  0  0  0  0  0  0  0  0  0
  -12.1550    5.5730    4.0710 C   0  0  0  0  0  0  0  0  0  0  0  0
  -11.8700    4.2310    4.3270 C   0  0  0  0  0  0  0  0  0  0  0  0
  -11.1660    3.8760    5.4790 C   0  0  0  0  0  0  0  0  0  0  0  0
  -12.0160    7.8660    4.7150 O   0  0  0  0  0  0  0  0  0  0  0  0
   -6.8990    7.6510    9.7710 O   0  0  0  0  0  0  0  0  0  0  0  0
   -6.8904    3.0234    5.4496 N   0  0  0  0  0  0  0  0  0  0  0  0
   -7.3270    2.3787    4.3792 N   0  0  0  0  0  0  0  0  0  0  0  0
   -8.4594    2.9746    3.9685 C   0  0  0  0  0  0  0  0  0  0  0  0
   -9.2792    2.5288    2.6190 S   0  0  0  0  0  0  0  0  0  0  0  0
   -8.7846    4.0107    4.7727 N   0  0  0  0  0  0  0  0  0  0  0  0
   -9.8477    5.0090    4.5815 C   0  0  0  0  0  0  0  0  0  0  0  0
   -9.2887    6.3419    4.0632 C   0  0  0  0  0  0  0  0  0  0  0  0
   -8.6744    6.1915    2.6939 C   0  0  0  0  0  0  0  0  0  0  0  0
   -7.5405    5.6469    2.6007 O   0  0  0  0  0  0  0  0  0  0  0  0
   -9.3507    6.6337    1.4984 N   0  0  0  0  0  0  0  0  0  0  0  0
   -9.0183    6.0090    0.2095 C   0  0  0  0  0  0  0  0  0  0  0  0
  -10.2745    5.9316   -0.6762 C   0  0  0  0  0  0  0  0  0  0  0  0
   -9.9580    5.2515   -2.0126 C   0  0  0  0  0  0  0  0  0  0  0  0
  -10.9270    7.3241   -0.8940 C   0  0  0  0  0  0  0  0  0  0  0  0
  -10.4923    8.3820    0.1471 C   0  0  0  0  0  0  0  0  0  0  0  0
  -11.4921    9.5427    0.2014 C   0  0  0  0  0  0  0  0  0  0  0  0
  -10.2976    7.7600    1.5425 C   0  0  0  0  0  0  0  0  0  0  0  0
  1  3  4  0
  1 14  4  0
  1  2  1  0
  3  4  4  0
  4  5  4  0
  5  6  4  0
  5 22  1  0
  6  7  1  0
  6 14  4  0
  7  8  1  0
  8  9  4  0
  8 12  4  0
  9 10  4  0
 10 11  4  0
 11 12  4  0
 12 13  1  0
 13 14  1  0
 13 15  1  6
 15 16  4  0
 15 20  4  0
 16 17  4  0
 17 18  4  0
 17 21  1  0
 18 19  4  0
 19 20  4  0
 23 24  4  0
 24 25  4  0
 25 26  2  0
 25 27  4  0
 27 28  1  0
 28 29  1  0
 29 30  1  0
 30 31  2  0
 30 32  1  0
 32 33  1  0
 33 34  1  0
 34 35  1  0
 34 36  1  0
 36 37  1  0
 37 38  1  0
 37 39  1  0
 39 32  1  0
  2 23  4  0
  2 27  4  0
M  END
$$$$

     RDKit          3D

 39 44  0  0  0  0  0  0  0  0999 V2000
   -7.6410    4.9930    6.8080 C   0  0  0  0  0  0  0  0  0  1  0  0
   -7.7310    4.0530    5.7140 C   0  0  0  0  0  0  0  0  0  2  0  0
   -6.4520    5.6300    6.8680 N   0  0  0  0  0  0  0  0  0  0  0  0
   -6.2260    6.5240    7.8670 N   0  0  0  0  0  0  0  0  0  0  0  0
   -7.1930    6.7500    8.7820 C   0  0  0  0  0  0  0  0  0  0  0  0
   -8.4240    6.1170    8.7580 C   0  0  0  0  0  0  0  0  0  0  0  0
   -9.3950    6.3570    9.7450 N   0  0  0  0  0  0  0  0  0  0  0  0
  -10.5620    5.6840    9.7600 C   0  0  0  0  0  0  0  0  0  0  0  0
  -11.5770    5.6820   10.5960 N   0  0  0  0  0  0  0  0  0  0  0  0
  -12.4690    4.7490   10.1080 N   0  0  0  0  0  0  0  0  0  0  0  0
  -12.0160    4.1880    8.9920 N   0  0  0  0  0  0  0  0  0  0  0  0
  -10.8400    4.7900    8.7610 N   0  0  0  0  0  0  0  0  0  0  0  0
   -9.9950    4.4790    7.6090 C   0  0  0  0  0  0  0  0  0  0  0  0
   -8.6630    5.2070    7.7200 C   0  0  0  0  0  0  0  0  0  0  0  0
  -10.7490    4.8610    6.3730 C   0  0  0  0  0  0  0  0  0  0  0  0
  -11.0350    6.2020    6.1170 C   0  0  0  0  0  0  0  0  0  0  0  0
  -11.7370    6.5580    4.9650 C   0  0  0  0  0  0  0  0  0  0  0  0
  -12.1550    5.5730    4.0710 C   0  0  0  0  0  0  0  0  0  0  0  0
  -11.8700    4.2310    4.3270 C   0  0  0  0  0  0  0  0  0  0  0  0
  -11.1660    3.8760    5.4790 C   0  0  0  0  0  0  0  0  0  0  0  0
  -12.0160    7.8660    4.7150 O   0  0  0  0  0  0  0  0  0  0  0  0
   -6.8990    7.6510    9.7710 O   0  0  0  0  0  0  0  0  0  0  0  0
   -6.8601    3.0621    5.4123 N   0  0  0  0  0  0  0  0  0  0  0  0
   -7.2928    2.4233    4.3380 N   0  0  0  0  0  0  0  0  0  0  0  0
   -8.4523    2.9855    3.9612 C   0  0  0  0  0  0  0  0  0  0  0  0
   -9.2660    2.5584    2.6032 S   0  0  0  0  0  0  0  0  0  0  0  0
   -8.8052    3.9858    4.7971 N   0  0  0  0  0  0  0  0  0  0  0  0
   -9.8663    4.9812    4.6030 C   0  0  0  0  0  0  0  0  0  0  0  0
   -9.3245    6.1875    3.8313 C   0  0  0  0  0  0  0  0  0  0  0  0
  -10.4126    7.1992    3.5855 C   0  0  0  0  0  0  0  0  0  0  0  0
  -11.0173    7.6946    4.5754 O   0  0  0  0  0  0  0  0  0  0  0  0
  -10.7928    7.5944    2.2537 N   0  0  0  0  0  0  0  0  0  0  0  0
  -12.2029    7.9133    1.9883 C   0  0  0  0  0  0  0  0  0  0  0  0
  -12.4869    7.9678    0.4777 C   0  0  0  0  0  0  0  0  0  0  0  0
  -13.9531    8.3265    0.2107 C   0  0  0  0  0  0  0  0  0  0  0  0
  -11.5373    8.9599   -0.2279 C   0  0  0  0  0  0  0  0  0  0  0  0
  -10.0635    8.8801    0.2649 C   0  0  0  0  0  0  0  0  0  0  0  0
   -9.6516   10.1719    0.9892 C   0  0  0  0  0  0  0  0  0  0  0  0
   -9.8053    7.6547    1.1651 C   0  0  0  0  0  0  0  0  0  0  0  0
  1  3  4  0
  1 14  4  0
  1  2  1  0
  3  4  4  0
  4  5  4  0
  5  6  4  0
  5 22  1  0
  6  7  1  0
  6 14  4  0
  7  8  1  0
  8  9  4  0
  8 12  4  0
  9 10  4  0
 10 11  4  0
 11 12  4  0
 12 13  1  0
 13 14  1  0
 13 15  1  6
 15 16  4  0
 15 20  4  0
 16 17  4  0
 17 18  4  0
 17 21  1  0
 18 19  4  0
 19 20  4  0
 23 24  4  0
 24 25  4  0
 25 26  2  0
 25 27  4  0
 27 28  1  0
 28 29  1  0
 29 30  1  0
 30 31  2  0
 30 32  1  0
 32 33  1  0
 33 34  1  0
 34 35  1  0
 34 36  1  0
 36 37  1  0
 37 38  1  0
 37 39  1  0
 39 32  1  0
  2 23  4  0
  2 27  4  0
M  END
$$$$

     RDKit          3D

 39 44  0  0  0  0  0  0  0  0999 V2000
   -7.6410    4.9930    6.8080 C   0  0  0  0  0  0  0  0  0  1  0  0
   -7.7310    4.0530    5.7140 C   0  0  0  0  0  0  0  0  0  2  0  0
   -6.4520    5.6300    6.8680 N   0  0  0  0  0  0  0  0  0  0  0  0
   -6.2260    6.5240    7.8670 N   0  0  0  0  0  0  0  0  0  0  0  0
   -7.1930    6.7500    8.7820 C   0  0  0  0  0  0  0  0  0  0  0  0
   -8.4240    6.1170    8.7580 C   0  0  0  0  0  0  0  0  0  0  0  0
   -9.3950    6.3570    9.7450 N   0  0  0  0  0  0  0  0  0  0  0  0
  -10.5620    5.6840    9.7600 C   0  0  0  0  0  0  0  0  0  0  0  0
  -11.5770    5.6820   10.5960 N   0  0  0  0  0  0  0  0  0  0  0  0
  -12.4690    4.7490   10.1080 N   0  0  0  0  0  0  0  0  0  0  0  0
  -12.0160    4.1880    8.9920 N   0  0  0  0  0  0  0  0  0  0  0  0
  -10.8400    4.7900    8.7610 N   0  0  0  0  0  0  0  0  0  0  0  0
   -9.9950    4.4790    7.6090 C   0  0  0  0  0  0  0  0  0  0  0  0
   -8.6630    5.2070    7.7200 C   0  0  0  0  0  0  0  0  0  0  0  0
  -10.7490    4.8610    6.3730 C   0  0  0  0  0  0  0  0  0  0  0  0
  -11.0350    6.2020    6.1170 C   0  0  0  0  0  0  0  0  0  0  0  0
  -11.7370    6.5580    4.9650 C   0  0  0  0  0  0  0  0  0  0  0  0
  -12.1550    5.5730    4.0710 C   0  0  0  0  0  0  0  0  0  0  0  0
  -11.8700    4.2310    4.3270 C   0  0  0  0  0  0  0  0  0  0  0  0
  -11.1660    3.8760    5.4790 C   0  0  0  0  0  0  0  0  0  0  0  0
  -12.0160    7.8660    4.7150 O   0  0  0  0  0  0  0  0  0  0  0  0
   -6.8990    7.6510    9.7710 O   0  0  0  0  0  0  0  0  0  0  0  0
   -6.8786    3.0378    5.4397 N   0  0  0  0  0  0  0  0  0  0  0  0
   -7.3250    2.3736    4.3872 N   0  0  0  0  0  0  0  0  0  0  0  0
   -8.4703    2.9511    3.9877 C   0  0  0  0  0  0  0  0  0  0  0  0
   -9.3018    2.4801    2.6540 S   0  0  0  0  0  0  0  0  0  0  0  0
   -8.8056    3.9816    4.7959 N   0  0  0  0  0  0  0  0  0  0  0  0
   -9.8847    4.9588    4.6070 C   0  0  0  0  0  0  0  0  0  0  0  0
   -9.3282    6.2722    4.0377 C   0  0  0  0  0  0  0  0  0  0  0  0
  -10.3957    7.1569    3.4286 C   0  0  0  0  0  0  0  0  0  0  0  0
  -11.6192    6.8892    3.6154 O   0  0  0  0  0  0  0  0  0  0  0  0
  -10.0435    8.2659    2.5758 N   0  0  0  0  0  0  0  0  0  0  0  0
   -8.8130    9.0457    2.7842 C   0  0  0  0  0  0  0  0  0  0  0  0
   -8.0042    9.1781    1.4701 C   0  0  0  0  0  0  0  0  0  0  0  0
   -6.9414    8.0746    1.3653 C   0  0  0  0  0  0  0  0  0  0  0  0
   -8.9049    9.1926    0.2058 C   0  0  0  0  0  0  0  0  0  0  0  0
  -10.3365    9.6616    0.5262 C   0  0  0  0  0  0  0  0  0  0  0  0
  -11.1772    9.7812   -0.7515 C   0  0  0  0  0  0  0  0  0  0  0  0
  -10.9876    8.6812    1.5257 C   0  0  0  0  0  0  0  0  0  0  0  0
  1  3  4  0
  1 14  4  0
  1  2  1  0
  3  4  4  0
  4  5  4  0
  5  6  4  0
  5 22  1  0
  6  7  1  0
  6 14  4  0
  7  8  1  0
  8  9  4  0
  8 12  4  0
  9 10  4  0
 10 11  4  0
 11 12  4  0
 12 13  1  0
 13 14  1  0
 13 15  1  6
 15 16  4  0
 15 20  4  0
 16 17  4  0
 17 18  4  0
 17 21  1  0
 18 19  4  0
 19 20  4  0
 23 24  4  0
 24 25  4  0
 25 26  2  0
 25 27  4  0
 27 28  1  0
 28 29  1  0
 29 30  1  0
 30 31  2  0
 30 32  1  0
 32 33  1  0
 33 34  1  0
 34 35  1  0
 34 36  1  0
 36 37  1  0
 37 38  1  0
 37 39  1  0
 39 32  1  0
  2 23  4  0
  2 27  4  0
M  END
$$$$

     RDKit          3D

 48 55  0  0  0  0  0  0  0  0999 V2000
   -7.6410    4.9930    6.8080 C   0  0  0  0  0  0  0  0  0  1  0  0
   -7.7310    4.0530    5.7140 C   0  0  0  0  0  0  0  0  0  2  0  0
   -6.4520    5.6300    6.8680 N   0  0  0  0  0  0  0  0  0  0  0  0
   -6.2260    6.5240    7.8670 N   0  0  0  0  0  0  0  0  0  0  0  0
   -7.1930    6.7500    8.7820 C   0  0  0  0  0  0  0  0  0  0  0  0
   -8.4240    6.1170    8.7580 C   0  0  0  0  0  0  0  0  0  0  0  0
   -9.3950    6.3570    9.7450 N   0  0  0  0  0  0  0  0  0  0  0  0
  -10.5620    5.6840    9.7600 C   0  0  0  0  0  0  0  0  0  0  0  0
  -11.5770    5.6820   10.5960 N   0  0  0  0  0  0  0  0  0  0  0  0
  -12.4690    4.7490   10.1080 N   0  0  0  0  0  0  0  0  0  0  0  0
  -12.0160    4.1880    8.9920 N   0  0  0  0  0  0  0  0  0  0  0  0
  -10.8400    4.7900    8.7610 N   0  0  0  0  0  0  0  0  0  0  0  0
   -9.9950    4.4790    7.6090 C   0  0  0  0  0  0  0  0  0  0  0  0
   -8.6630    5.2070    7.7200 C   0  0  0  0  0  0  0  0  0  0  0  0
  -10.7490    4.8610    6.3730 C   0  0  0  0  0  0  0  0  0  0  0  0
  -11.0350    6.2020    6.1170 C   0  0  0  0  0  0  0  0  0  0  0  0
  -11.7370    6.5580    4.9650 C   0  0  0  0  0  0  0  0  0  0  0  0
  -12.1550    5.5730    4.0710 C   0  0  0  0  0  0  0  0  0  0  0  0
  -11.8700    4.2310    4.3270 C   0  0  0  0  0  0  0  0  0  0  0  0
  -11.1660    3.8760    5.4790 C   0  0  0  0  0  0  0  0  0  0  0  0
  -12.0160    7.8660    4.7150 O   0  0  0  0  0  0  0  0  0  0  0  0
   -6.8990    7.6510    9.7710 O   0  0  0  0  0  0  0  0  0  0  0  0
   -6.9610    2.9209    5.7015 N   0  0  0  0  0  0  0  0  0  0  0  0
   -7.0937    1.9670    4.7586 C   0  0  0  0  0  0  0  0  0  0  0  0
   -6.1616    0.5802    4.6055 S   0  0  0  0  0  0  0  0  0  0  0  0
   -6.9813    0.0417    3.2299 C   0  0  0  0  0  0  0  0  0  0  0  0
   -8.0165    0.9245    2.9073 C   0  0  0  0  0  0  0  0  0  0  0  0
   -8.0518    2.0366    3.7733 C   0  0  0  0  0  0  0  0  0  0  0  0
   -8.8855    3.1605    3.7377 C   0  0  0  0  0  0  0  0  0  0  0  0
   -9.7548    3.2712    2.8295 O   0  0  0  0  0  0  0  0  0  0  0  0
   -8.7383    4.1494    4.6900 N   0  0  0  0  0  0  0  0  0  0  0  0
   -9.5527    5.3791    4.5592 C   0  0  0  0  0  0  0  0  0  0  0  0
   -9.0634    6.2192    3.4057 C   0  0  0  0  0  0  0  0  0  0  0  0
   -9.8874    6.4563    2.2948 C   0  0  0  0  0  0  0  0  0  0  0  0
   -9.4272    7.2289    1.2245 C   0  0  0  0  0  0  0  0  0  0  0  0
   -8.1348    7.7806    1.2472 C   0  0  0  0  0  0  0  0  0  0  0  0
   -7.6503    8.5953    0.1116 C   0  0  0  0  0  0  0  0  0  0  0  0
   -6.4819    9.0724    0.1281 O   0  0  0  0  0  0  0  0  0  0  0  0
   -8.4953    8.8419   -0.9786 O   0  0  0  0  0  0  0  0  0  0  0  0
   -8.0959    9.5725   -2.1386 C   0  0  0  0  0  0  0  0  0  0  0  0
   -9.3443   10.0121   -2.9005 C   0  0  0  0  0  0  0  0  0  0  0  0
   -7.2028    8.7036   -3.0289 C   0  0  0  0  0  0  0  0  0  0  0  0
   -7.3133    7.5454    2.3640 C   0  0  0  0  0  0  0  0  0  0  0  0
   -7.7755    6.7738    3.4335 C   0  0  0  0  0  0  0  0  0  0  0  0
   -8.8925    0.7121    1.6971 C   0  0  0  0  0  0  0  0  0  0  0  0
   -8.8049   -0.7331    1.1728 C   0  0  0  0  0  0  0  0  0  0  0  0
   -7.3502   -1.2252    1.1116 C   0  0  0  0  0  0  0  0  0  0  0  0
   -6.7164   -1.2450    2.5104 C   0  0  0  0  0  0  0  0  0  0  0  0
  1  3  4  0
  1 14  4  0
  1  2  1  0
  3  4  4  0
  4  5  4  0
  5  6  4  0
  5 22  1  0
  6  7  1  0
  6 14  4  0
  7  8  1  0
  8  9  4  0
  8 12  4  0
  9 10  4  0
 10 11  4  0
 11 12  4  0
 12 13  1  0
 13 14  1  0
 13 15  1  6
 15 16  4  0
 15 20  4  0
 16 17  4  0
 17 18  4  0
 17 21  1  0
 18 19  4  0
 19 20  4  0
 23 24  4  0
 24 25  4  0
 25 26  4  0
 26 27  4  0
 27 28  4  0
 28 29  4  0
 29 30  2  0
 29 31  4  0
 31 32  1  0
 32 33  1  0
 33 34  4  0
 34 35  4  0
 35 36  4  0
 36 37  1  0
 37 38  2  0
 37 39  1  0
 39 40  1  0
 40 41  1  0
 40 42  1  0
 36 43  4  0
 43 44  4  0
 27 45  1  0
 45 46  1  0
 46 47  1  0
 47 48  1  0
 44 33  4  0
 28 24  4  0
 48 26  1  0
  2 23  4  0
  2 31  4  0
M  END
$$$$

     RDKit          3D

 38 43  0  0  0  0  0  0  0  0999 V2000
   -7.6410    4.9930    6.8080 C   0  0  0  0  0  0  0  0  0  1  0  0
   -7.7310    4.0530    5.7140 C   0  0  0  0  0  0  0  0  0  2  0  0
   -6.4520    5.6300    6.8680 N   0  0  0  0  0  0  0  0  0  0  0  0
   -6.2260    6.5240    7.8670 N   0  0  0  0  0  0  0  0  0  0  0  0
   -7.1930    6.7500    8.7820 C   0  0  0  0  0  0  0  0  0  0  0  0
   -8.4240    6.1170    8.7580 C   0  0  0  0  0  0  0  0  0  0  0  0
   -9.3950    6.3570    9.7450 N   0  0  0  0  0  0  0  0  0  0  0  0
  -10.5620    5.6840    9.7600 C   0  0  0  0  0  0  0  0  0  0  0  0
  -11.5770    5.6820   10.5960 N   0  0  0  0  0  0  0  0  0  0  0  0
  -12.4690    4.7490   10.1080 N   0  0  0  0  0  0  0  0  0  0  0  0
  -12.0160    4.1880    8.9920 N   0  0  0  0  0  0  0  0  0  0  0  0
  -10.8400    4.7900    8.7610 N   0  0  0  0  0  0  0  0  0  0  0  0
   -9.9950    4.4790    7.6090 C   0  0  0  0  0  0  0  0  0  0  0  0
   -8.6630    5.2070    7.7200 C   0  0  0  0  0  0  0  0  0  0  0  0
  -10.7490    4.8610    6.3730 C   0  0  0  0  0  0  0  0  0  0  0  0
  -11.0350    6.2020    6.1170 C   0  0  0  0  0  0  0  0  0  0  0  0
  -11.7370    6.5580    4.9650 C   0  0  0  0  0  0  0  0  0  0  0  0
  -12.1550    5.5730    4.0710 C   0  0  0  0  0  0  0  0  0  0  0  0
  -11.8700    4.2310    4.3270 C   0  0  0  0  0  0  0  0  0  0  0  0
  -11.1660    3.8760    5.4790 C   0  0  0  0  0  0  0  0  0  0  0  0
  -12.0160    7.8660    4.7150 O   0  0  0  0  0  0  0  0  0  0  0  0
   -6.8990    7.6510    9.7710 O   0  0  0  0  0  0  0  0  0  0  0  0
   -6.7904    3.1854    5.2892 N   0  0  0  0  0  0  0  0  0  0  0  0
   -7.2662    2.4450    4.2990 N   0  0  0  0  0  0  0  0  0  0  0  0
   -8.5397    2.8306    4.1005 C   0  0  0  0  0  0  0  0  0  0  0  0
   -9.6002    2.1115    2.8462 S   0  0  0  0  0  0  0  0  0  0  0  0
   -9.0213    3.2471    1.5930 C   0  0  0  0  0  0  0  0  0  0  0  0
   -9.6696    4.4236    1.3896 N   0  0  0  0  0  0  0  0  0  0  0  0
   -9.2397    5.3015    0.4473 C   0  0  0  0  0  0  0  0  0  0  0  0
   -8.1200    4.9996   -0.3269 C   0  0  0  0  0  0  0  0  0  0  0  0
   -7.4630    3.7825   -0.1090 C   0  0  0  0  0  0  0  0  0  0  0  0
   -6.2531    3.4162   -0.9172 C   0  0  0  0  0  0  0  0  0  0  0  0
   -5.7737    2.1742   -0.5392 F   0  0  0  0  0  0  0  0  0  0  0  0
   -6.5845    3.3782   -2.2593 F   0  0  0  0  0  0  0  0  0  0  0  0
   -5.2600    4.3581   -0.7198 F   0  0  0  0  0  0  0  0  0  0  0  0
   -7.9297    2.9336    0.8467 N   0  0  0  0  0  0  0  0  0  0  0  0
   -8.8978    3.8183    4.9445 N   0  0  0  0  0  0  0  0  0  0  0  0
  -10.1860    4.5061    5.0185 C   0  0  0  0  0  0  0  0  0  0  0  0
  1  3  4  0
  1 14  4  0
  1  2  1  0
  3  4  4  0
  4  5  4  0
  5  6  4  0
  5 22  1  0
  6  7  1  0
  6 14  4  0
  7  8  1  0
  8  9  4  0
  8 12  4  0
  9 10  4  0
 10 11  4  0
 11 12  4  0
 12 13  1  0
 13 14  1  0
 13 15  1  6
 15 16  4  0
 15 20  4  0
 16 17  4  0
 17 18  4  0
 17 21  1  0
 18 19  4  0
 19 20  4  0
 23 24  4  0
 24 25  4  0
 25 26  1  0
 26 27  1  0
 27 28  4  0
 28 29  4  0
 29 30  4  0
 30 31  4  0
 31 32  1  0
 32 33  1  0
 32 34  1  0
 32 35  1  0
 31 36  4  0
 25 37  4  0
 37 38  1  0
 36 27  4  0
  2 23  4  0
  2 37  4  0
M  END
$$$$

     RDKit          3D

 46 52  0  0  0  0  0  0  0  0999 V2000
   -7.6410    4.9930    6.8080 C   0  0  0  0  0  0  0  0  0  1  0  0
   -7.7310    4.0530    5.7140 C   0  0  0  0  0  0  0  0  0  2  0  0
   -6.4520    5.6300    6.8680 N   0  0  0  0  0  0  0  0  0  0  0  0
   -6.2260    6.5240    7.8670 N   0  0  0  0  0  0  0  0  0  0  0  0
   -7.1930    6.7500    8.7820 C   0  0  0  0  0  0  0  0  0  0  0  0
   -8.4240    6.1170    8.7580 C   0  0  0  0  0  0  0  0  0  0  0  0
   -9.3950    6.3570    9.7450 N   0  0  0  0  0  0  0  0  0  0  0  0
  -10.5620    5.6840    9.7600 C   0  0  0  0  0  0  0  0  0  0  0  0
  -11.5770    5.6820   10.5960 N   0  0  0  0  0  0  0  0  0  0  0  0
  -12.4690    4.7490   10.1080 N   0  0  0  0  0  0  0  0  0  0  0  0
  -12.0160    4.1880    8.9920 N   0  0  0  0  0  0  0  0  0  0  0  0
  -10.8400    4.7900    8.7610 N   0  0  0  0  0  0  0  0  0  0  0  0
   -9.9950    4.4790    7.6090 C   0  0  0  0  0  0  0  0  0  0  0  0
   -8.6630    5.2070    7.7200 C   0  0  0  0  0  0  0  0  0  0  0  0
  -10.7490    4.8610    6.3730 C   0  0  0  0  0  0  0  0  0  0  0  0
  -11.0350    6.2020    6.1170 C   0  0  0  0  0  0  0  0  0  0  0  0
  -11.7370    6.5580    4.9650 C   0  0  0  0  0  0  0  0  0  0  0  0
  -12.1550    5.5730    4.0710 C   0  0  0  0  0  0  0  0  0  0  0  0
  -11.8700    4.2310    4.3270 C   0  0  0  0  0  0  0  0  0  0  0  0
  -11.1660    3.8760    5.4790 C   0  0  0  0  0  0  0  0  0  0  0  0
  -12.0160    7.8660    4.7150 O   0  0  0  0  0  0  0  0  0  0  0  0
   -6.8990    7.6510    9.7710 O   0  0  0  0  0  0  0  0  0  0  0  0
   -6.8826    3.0394    5.4244 N   0  0  0  0  0  0  0  0  0  0  0  0
   -7.3165    2.4108    4.3442 N   0  0  0  0  0  0  0  0  0  0  0  0
   -8.4552    3.0004    3.9509 C   0  0  0  0  0  0  0  0  0  0  0  0
   -9.2429    2.6155    2.5645 S   0  0  0  0  0  0  0  0  0  0  0  0
   -8.7940    4.0080    4.7845 N   0  0  0  0  0  0  0  0  0  0  0  0
   -9.7746    5.0707    4.5379 C   0  0  0  0  0  0  0  0  0  0  0  0
   -9.1102    6.2253    3.7752 C   0  0  0  0  0  0  0  0  0  0  0  0
  -10.1397    7.1425    3.1778 C   0  0  0  0  0  0  0  0  0  0  0  0
  -10.9657    7.7145    3.9369 O   0  0  0  0  0  0  0  0  0  0  0  0
  -10.1900    7.3863    1.7590 N   0  0  0  0  0  0  0  0  0  0  0  0
  -11.4826    7.3138    1.0716 C   0  0  0  0  0  0  0  0  0  0  0  0
  -11.8691    5.8717    0.8533 C   0  0  0  0  0  0  0  0  0  0  0  0
  -12.6869    5.2262    1.7934 C   0  0  0  0  0  0  0  0  0  0  0  0
  -13.0325    3.8853    1.6287 C   0  0  0  0  0  0  0  0  0  0  0  0
  -12.5788    3.1658    0.5229 C   0  0  0  0  0  0  0  0  0  0  0  0
  -12.9614    1.8210    0.4050 O   0  0  0  0  0  0  0  0  0  0  0  0
  -12.5869    0.9709   -0.6732 C   0  0  0  0  0  0  0  0  0  0  0  0
  -11.7594    3.8054   -0.4260 C   0  0  0  0  0  0  0  0  0  0  0  0
  -11.3934    5.1568   -0.2643 C   0  0  0  0  0  0  0  0  0  0  0  0
  -10.5642    5.8149   -1.1871 O   0  0  0  0  0  0  0  0  0  0  0  0
  -10.0767    5.2392   -2.3962 C   0  0  0  0  0  0  0  0  0  0  0  0
   -8.9542    7.4220    0.9673 C   0  0  0  0  0  0  0  0  0  0  0  0
   -7.9702    8.4935    1.4118 C   0  0  0  0  0  0  0  0  0  0  0  0
   -8.7756    8.6878    0.1389 C   0  0  0  0  0  0  0  0  0  0  0  0
  1  3  4  0
  1 14  4  0
  1  2  1  0
  3  4  4  0
  4  5  4  0
  5  6  4  0
  5 22  1  0
  6  7  1  0
  6 14  4  0
  7  8  1  0
  8  9  4  0
  8 12  4  0
  9 10  4  0
 10 11  4  0
 11 12  4  0
 12 13  1  0
 13 14  1  0
 13 15  1  6
 15 16  4  0
 15 20  4  0
 16 17  4  0
 17 18  4  0
 17 21  1  0
 18 19  4  0
 19 20  4  0
 23 24  4  0
 24 25  4  0
 25 26  2  0
 25 27  4  0
 27 28  1  0
 28 29  1  0
 29 30  1  0
 30 31  2  0
 30 32  1  0
 32 33  1  0
 33 34  1  0
 34 35  4  0
 35 36  4  0
 36 37  4  0
 37 38  1  0
 38 39  1  0
 37 40  4  0
 40 41  4  0
 41 42  1  0
 42 43  1  0
 32 44  1  0
 44 45  1  0
 45 46  1  0
 41 34  4  0
 46 44  1  0
  2 23  4  0
  2 27  4  0
M  END
$$$$

     RDKit          3D

 46 52  0  0  0  0  0  0  0  0999 V2000
   -7.6410    4.9930    6.8080 C   0  0  0  0  0  0  0  0  0  1  0  0
   -7.7310    4.0530    5.7140 C   0  0  0  0  0  0  0  0  0  2  0  0
   -6.4520    5.6300    6.8680 N   0  0  0  0  0  0  0  0  0  0  0  0
   -6.2260    6.5240    7.8670 N   0  0  0  0  0  0  0  0  0  0  0  0
   -7.1930    6.7500    8.7820 C   0  0  0  0  0  0  0  0  0  0  0  0
   -8.4240    6.1170    8.7580 C   0  0  0  0  0  0  0  0  0  0  0  0
   -9.3950    6.3570    9.7450 N   0  0  0  0  0  0  0  0  0  0  0  0
  -10.5620    5.6840    9.7600 C   0  0  0  0  0  0  0  0  0  0  0  0
  -11.5770    5.6820   10.5960 N   0  0  0  0  0  0  0  0  0  0  0  0
  -12.4690    4.7490   10.1080 N   0  0  0  0  0  0  0  0  0  0  0  0
  -12.0160    4.1880    8.9920 N   0  0  0  0  0  0  0  0  0  0  0  0
  -10.8400    4.7900    8.7610 N   0  0  0  0  0  0  0  0  0  0  0  0
   -9.9950    4.4790    7.6090 C   0  0  0  0  0  0  0  0  0  0  0  0
   -8.6630    5.2070    7.7200 C   0  0  0  0  0  0  0  0  0  0  0  0
  -10.7490    4.8610    6.3730 C   0  0  0  0  0  0  0  0  0  0  0  0
  -11.0350    6.2020    6.1170 C   0  0  0  0  0  0  0  0  0  0  0  0
  -11.7370    6.5580    4.9650 C   0  0  0  0  0  0  0  0  0  0  0  0
  -12.1550    5.5730    4.0710 C   0  0  0  0  0  0  0  0  0  0  0  0
  -11.8700    4.2310    4.3270 C   0  0  0  0  0  0  0  0  0  0  0  0
  -11.1660    3.8760    5.4790 C   0  0  0  0  0  0  0  0  0  0  0  0
  -12.0160    7.8660    4.7150 O   0  0  0  0  0  0  0  0  0  0  0  0
   -6.8990    7.6510    9.7710 O   0  0  0  0  0  0  0  0  0  0  0  0
   -6.8494    3.0731    5.4049 N   0  0  0  0  0  0  0  0  0  0  0  0
   -7.2994    2.4007    4.3573 N   0  0  0  0  0  0  0  0  0  0  0  0
   -8.4796    2.9296    4.0003 C   0  0  0  0  0  0  0  0  0  0  0  0
   -9.3760    2.3698    2.7438 S   0  0  0  0  0  0  0  0  0  0  0  0
   -8.8276    3.9475    4.8192 N   0  0  0  0  0  0  0  0  0  0  0  0
   -9.9779    4.8546    4.6899 C   0  0  0  0  0  0  0  0  0  0  0  0
   -9.6029    6.1429    3.9443 C   0  0  0  0  0  0  0  0  0  0  0  0
   -9.3360    5.8930    2.4766 C   0  0  0  0  0  0  0  0  0  0  0  0
  -10.2447    5.3266    1.8116 O   0  0  0  0  0  0  0  0  0  0  0  0
   -8.1080    6.3013    1.8172 N   0  0  0  0  0  0  0  0  0  0  0  0
   -7.9281    6.0208    0.3768 C   0  0  0  0  0  0  0  0  0  0  0  0
   -7.9870    7.2930   -0.4382 C   0  0  0  0  0  0  0  0  0  0  0  0
   -6.8059    7.8262   -0.9731 C   0  0  0  0  0  0  0  0  0  0  0  0
   -6.8352    9.0017   -1.7230 C   0  0  0  0  0  0  0  0  0  0  0  0
   -8.0402    9.6679   -1.9543 C   0  0  0  0  0  0  0  0  0  0  0  0
   -8.0149   10.8436   -2.7184 O   0  0  0  0  0  0  0  0  0  0  0  0
   -9.1627   11.6286   -3.0257 C   0  0  0  0  0  0  0  0  0  0  0  0
   -9.2289    9.1418   -1.4210 C   0  0  0  0  0  0  0  0  0  0  0  0
   -9.2120    7.9519   -0.6657 C   0  0  0  0  0  0  0  0  0  0  0  0
  -10.3877    7.3977   -0.1376 O   0  0  0  0  0  0  0  0  0  0  0  0
  -11.6963    7.9254   -0.3361 C   0  0  0  0  0  0  0  0  0  0  0  0
   -7.1904    7.2392    2.4827 C   0  0  0  0  0  0  0  0  0  0  0  0
   -6.3041    6.5903    3.5334 C   0  0  0  0  0  0  0  0  0  0  0  0
   -5.7019    7.0360    2.2154 C   0  0  0  0  0  0  0  0  0  0  0  0
  1  3  4  0
  1 14  4  0
  1  2  1  0
  3  4  4  0
  4  5  4  0
  5  6  4  0
  5 22  1  0
  6  7  1  0
  6 14  4  0
  7  8  1  0
  8  9  4  0
  8 12  4  0
  9 10  4  0
 10 11  4  0
 11 12  4  0
 12 13  1  0
 13 14  1  0
 13 15  1  6
 15 16  4  0
 15 20  4  0
 16 17  4  0
 17 18  4  0
 17 21  1  0
 18 19  4  0
 19 20  4  0
 23 24  4  0
 24 25  4  0
 25 26  2  0
 25 27  4  0
 27 28  1  0
 28 29  1  0
 29 30  1  0
 30 31  2  0
 30 32  1  0
 32 33  1  0
 33 34  1  0
 34 35  4  0
 35 36  4  0
 36 37  4  0
 37 38  1  0
 38 39  1  0
 37 40  4  0
 40 41  4  0
 41 42  1  0
 42 43  1  0
 32 44  1  0
 44 45  1  0
 45 46  1  0
 41 34  4  0
 46 44  1  0
  2 23  4  0
  2 27  4  0
M  END
$$$$

     RDKit          3D

 29 33  0  0  0  0  0  0  0  0999 V2000
   -7.6410    4.9930    6.8080 C   0  0  0  0  0  0  0  0  0  1  0  0
   -7.7310    4.0530    5.7140 C   0  0  0  0  0  0  0  0  0  2  0  0
   -6.4520    5.6300    6.8680 N   0  0  0  0  0  0  0  0  0  0  0  0
   -6.2260    6.5240    7.8670 N   0  0  0  0  0  0  0  0  0  0  0  0
   -7.1930    6.7500    8.7820 C   0  0  0  0  0  0  0  0  0  0  0  0
   -8.4240    6.1170    8.7580 C   0  0  0  0  0  0  0  0  0  0  0  0
   -9.3950    6.3570    9.7450 N   0  0  0  0  0  0  0  0  0  0  0  0
  -10.5620    5.6840    9.7600 C   0  0  0  0  0  0  0  0  0  0  0  0
  -11.5770    5.6820   10.5960 N   0  0  0  0  0  0  0  0  0  0  0  0
  -12.4690    4.7490   10.1080 N   0  0  0  0  0  0  0  0  0  0  0  0
  -12.0160    4.1880    8.9920 N   0  0  0  0  0  0  0  0  0  0  0  0
  -10.8400    4.7900    8.7610 N   0  0  0  0  0  0  0  0  0  0  0  0
   -9.9950    4.4790    7.6090 C   0  0  0  0  0  0  0  0  0  0  0  0
   -8.6630    5.2070    7.7200 C   0  0  0  0  0  0  0  0  0  0  0  0
  -10.7490    4.8610    6.3730 C   0  0  0  0  0  0  0  0  0  0  0  0
  -11.0350    6.2020    6.1170 C   0  0  0  0  0  0  0  0  0  0  0  0
  -11.7370    6.5580    4.9650 C   0  0  0  0  0  0  0  0  0  0  0  0
  -12.1550    5.5730    4.0710 C   0  0  0  0  0  0  0  0  0  0  0  0
  -11.8700    4.2310    4.3270 C   0  0  0  0  0  0  0  0  0  0  0  0
  -11.1660    3.8760    5.4790 C   0  0  0  0  0  0  0  0  0  0  0  0
  -12.0160    7.8660    4.7150 O   0  0  0  0  0  0  0  0  0  0  0  0
   -6.8990    7.6510    9.7710 O   0  0  0  0  0  0  0  0  0  0  0  0
   -6.8247    2.9891    5.5245 C   0  0  0  0  0  0  0  0  0  0  0  0
   -6.9555    2.0379    4.5103 C   0  0  0  0  0  0  0  0  0  0  0  0
   -8.0465    2.0858    3.6421 C   0  0  0  0  0  0  0  0  0  0  0  0
   -9.0071    3.0893    3.7802 C   0  0  0  0  0  0  0  0  0  0  0  0
   -8.8865    4.0524    4.7923 C   0  0  0  0  0  0  0  0  0  0  0  0
   -9.8717    5.1054    4.8613 C   0  0  0  0  0  0  0  0  0  0  0  0
  -10.6610    5.9496    4.9167 N   0  0  0  0  0  0  0  0  0  0  0  0
  1  3  4  0
  1 14  4  0
  1  2  1  0
  3  4  4  0
  4  5  4  0
  5  6  4  0
  5 22  1  0
  6  7  1  0
  6 14  4  0
  7  8  1  0
  8  9  4  0
  8 12  4  0
  9 10  4  0
 10 11  4  0
 11 12  4  0
 12 13  1  0
 13 14  1  0
 13 15  1  6
 15 16  4  0
 15 20  4  0
 16 17  4  0
 17 18  4  0
 17 21  1  0
 18 19  4  0
 19 20  4  0
 23 24  4  0
 24 25  4  0
 25 26  4  0
 26 27  4  0
 27 28  1  0
 28 29  3  0
  2 23  4  0
  2 27  4  0
M  END
$$$$

     RDKit          3D

 37 42  0  0  0  0  0  0  0  0999 V2000
   -7.6410    4.9930    6.8080 C   0  0  0  0  0  0  0  0  0  1  0  0
   -7.7310    4.0530    5.7140 C   0  0  0  0  0  0  0  0  0  2  0  0
   -6.4520    5.6300    6.8680 N   0  0  0  0  0  0  0  0  0  0  0  0
   -6.2260    6.5240    7.8670 N   0  0  0  0  0  0  0  0  0  0  0  0
   -7.1930    6.7500    8.7820 C   0  0  0  0  0  0  0  0  0  0  0  0
   -8.4240    6.1170    8.7580 C   0  0  0  0  0  0  0  0  0  0  0  0
   -9.3950    6.3570    9.7450 N   0  0  0  0  0  0  0  0  0  0  0  0
  -10.5620    5.6840    9.7600 C   0  0  0  0  0  0  0  0  0  0  0  0
  -11.5770    5.6820   10.5960 N   0  0  0  0  0  0  0  0  0  0  0  0
  -12.4690    4.7490   10.1080 N   0  0  0  0  0  0  0  0  0  0  0  0
  -12.0160    4.1880    8.9920 N   0  0  0  0  0  0  0  0  0  0  0  0
  -10.8400    4.7900    8.7610 N   0  0  0  0  0  0  0  0  0  0  0  0
   -9.9950    4.4790    7.6090 C   0  0  0  0  0  0  0  0  0  0  0  0
   -8.6630    5.2070    7.7200 C   0  0  0  0  0  0  0  0  0  0  0  0
  -10.7490    4.8610    6.3730 C   0  0  0  0  0  0  0  0  0  0  0  0
  -11.0350    6.2020    6.1170 C   0  0  0  0  0  0  0  0  0  0  0  0
  -11.7370    6.5580    4.9650 C   0  0  0  0  0  0  0  0  0  0  0  0
  -12.1550    5.5730    4.0710 C   0  0  0  0  0  0  0  0  0  0  0  0
  -11.8700    4.2310    4.3270 C   0  0  0  0  0  0  0  0  0  0  0  0
  -11.1660    3.8760    5.4790 C   0  0  0  0  0  0  0  0  0  0  0  0
  -12.0160    7.8660    4.7150 O   0  0  0  0  0  0  0  0  0  0  0  0
   -6.8990    7.6510    9.7710 O   0  0  0  0  0  0  0  0  0  0  0  0
   -6.7738    3.1948    5.2879 N   0  0  0  0  0  0  0  0  0  0  0  0
   -7.3021    2.5075    4.2557 C   0  0  0  0  0  0  0  0  0  0  0  0
   -6.6381    1.5505    3.4903 C   0  0  0  0  0  0  0  0  0  0  0  0
   -4.9729    1.1054    3.8239 Cl  0  0  0  0  0  0  0  0  0  0  0  0
   -7.3392    0.9595    2.4280 C   0  0  0  0  0  0  0  0  0  0  0  0
   -8.6796    1.3223    2.1585 C   0  0  0  0  0  0  0  0  0  0  0  0
   -9.4121    0.7324    0.9810 C   0  0  0  0  0  0  0  0  0  0  0  0
   -8.9833   -0.5610    0.7382 F   0  0  0  0  0  0  0  0  0  0  0  0
   -9.1701    1.5054   -0.1391 F   0  0  0  0  0  0  0  0  0  0  0  0
  -10.7749    0.6992    1.2208 F   0  0  0  0  0  0  0  0  0  0  0  0
   -9.2842    2.3164    2.9542 C   0  0  0  0  0  0  0  0  0  0  0  0
   -8.5716    2.8521    3.9814 N   0  0  0  0  0  0  0  0  0  0  0  0
   -8.9007    3.8045    4.8744 C   0  0  0  0  0  0  0  0  0  0  0  0
  -10.2130    4.5490    4.8942 C   0  0  0  0  0  0  0  0  0  0  0  0
  -11.2802    3.7192    5.4547 N   0  0  0  0  0  0  0  0  0  0  0  0
  1  3  4  0
  1 14  4  0
  1  2  1  0
  3  4  4  0
  4  5  4  0
  5  6  4  0
  5 22  1  0
  6  7  1  0
  6 14  4  0
  7  8  1  0
  8  9  4  0
  8 12  4  0
  9 10  4  0
 10 11  4  0
 11 12  4  0
 12 13  1  0
 13 14  1  0
 13 15  1  6
 15 16  4  0
 15 20  4  0
 16 17  4  0
 17 18  4  0
 17 21  1  0
 18 19  4  0
 19 20  4  0
 23 24  4  0
 24 25  4  0
 25 26  1  0
 25 27  4  0
 27 28  4  0
 28 29  1  0
 29 30  1  0
 29 31  1  0
 29 32  1  0
 28 33  4  0
 33 34  4  0
 34 35  4  0
 35 36  1  0
 36 37  1  0
 34 24  4  0
  2 23  4  0
  2 35  4  0
M  CHG  1  37   1
M  END
$$$$

     RDKit          3D

 45 50  0  0  0  0  0  0  0  0999 V2000
   -7.6410    4.9930    6.8080 C   0  0  0  0  0  0  0  0  0  1  0  0
   -7.7310    4.0530    5.7140 C   0  0  0  0  0  0  0  0  0  2  0  0
   -6.4520    5.6300    6.8680 N   0  0  0  0  0  0  0  0  0  0  0  0
   -6.2260    6.5240    7.8670 N   0  0  0  0  0  0  0  0  0  0  0  0
   -7.1930    6.7500    8.7820 C   0  0  0  0  0  0  0  0  0  0  0  0
   -8.4240    6.1170    8.7580 C   0  0  0  0  0  0  0  0  0  0  0  0
   -9.3950    6.3570    9.7450 N   0  0  0  0  0  0  0  0  0  0  0  0
  -10.5620    5.6840    9.7600 C   0  0  0  0  0  0  0  0  0  0  0  0
  -11.5770    5.6820   10.5960 N   0  0  0  0  0  0  0  0  0  0  0  0
  -12.4690    4.7490   10.1080 N   0  0  0  0  0  0  0  0  0  0  0  0
  -12.0160    4.1880    8.9920 N   0  0  0  0  0  0  0  0  0  0  0  0
  -10.8400    4.7900    8.7610 N   0  0  0  0  0  0  0  0  0  0  0  0
   -9.9950    4.4790    7.6090 C   0  0  0  0  0  0  0  0  0  0  0  0
   -8.6630    5.2070    7.7200 C   0  0  0  0  0  0  0  0  0  0  0  0
  -10.7490    4.8610    6.3730 C   0  0  0  0  0  0  0  0  0  0  0  0
  -11.0350    6.2020    6.1170 C   0  0  0  0  0  0  0  0  0  0  0  0
  -11.7370    6.5580    4.9650 C   0  0  0  0  0  0  0  0  0  0  0  0
  -12.1550    5.5730    4.0710 C   0  0  0  0  0  0  0  0  0  0  0  0
  -11.8700    4.2310    4.3270 C   0  0  0  0  0  0  0  0  0  0  0  0
  -11.1660    3.8760    5.4790 C   0  0  0  0  0  0  0  0  0  0  0  0
  -12.0160    7.8660    4.7150 O   0  0  0  0  0  0  0  0  0  0  0  0
   -6.8990    7.6510    9.7710 O   0  0  0  0  0  0  0  0  0  0  0  0
   -6.8010    3.1025    5.4175 N   0  0  0  0  0  0  0  0  0  0  0  0
   -7.1332    2.2699    4.4084 C   0  0  0  0  0  0  0  0  0  0  0  0
   -6.2757    1.1368    3.9592 C   0  0  0  0  0  0  0  0  0  0  0  0
   -8.6716    2.5961    3.8213 S   0  0  0  0  0  0  0  0  0  0  0  0
   -8.9158    3.8984    4.8654 C   0  0  0  0  0  0  0  0  0  0  0  0
  -10.1603    4.7428    4.9036 C   0  0  0  0  0  0  0  0  0  0  0  0
  -10.6275    5.0727    3.5181 C   0  0  0  0  0  0  0  0  0  0  0  0
  -10.1178    6.0529    2.9105 O   0  0  0  0  0  0  0  0  0  0  0  0
  -11.6251    4.2614    2.8811 N   0  0  0  0  0  0  0  0  0  0  0  0
  -12.1430    4.5631    1.5399 C   0  0  0  0  0  0  0  0  0  0  0  0
  -12.8639    3.3426    0.9297 C   0  0  0  0  0  0  0  0  0  0  0  0
  -14.2104    3.0361    1.6262 C   0  0  0  0  0  0  0  0  0  0  0  0
  -14.9219    1.8469    0.9524 C   0  0  0  0  0  0  0  0  0  0  0  0
  -14.1103    0.7266    0.9912 F   0  0  0  0  0  0  0  0  0  0  0  0
  -15.2207    2.1384   -0.3677 F   0  0  0  0  0  0  0  0  0  0  0  0
  -16.0968    1.5560    1.6233 F   0  0  0  0  0  0  0  0  0  0  0  0
  -15.1118    4.2878    1.6393 C   0  0  0  0  0  0  0  0  0  0  0  0
  -14.3985    5.4795    2.3102 C   0  0  0  0  0  0  0  0  0  0  0  0
  -15.3113    6.7198    2.3548 C   0  0  0  0  0  0  0  0  0  0  0  0
  -15.6494    7.1256    1.0752 F   0  0  0  0  0  0  0  0  0  0  0  0
  -14.6647    7.7602    2.9985 F   0  0  0  0  0  0  0  0  0  0  0  0
  -16.4700    6.4303    3.0536 F   0  0  0  0  0  0  0  0  0  0  0  0
  -13.0780    5.7878    1.5739 C   0  0  0  0  0  0  0  0  0  0  0  0
  1  3  4  0
  1 14  4  0
  1  2  1  0
  3  4  4  0
  4  5  4  0
  5  6  4  0
  5 22  1  0
  6  7  1  0
  6 14  4  0
  7  8  1  0
  8  9  4  0
  8 12  4  0
  9 10  4  0
 10 11  4  0
 11 12  4  0
 12 13  1  0
 13 14  1  0
 13 15  1  6
 15 16  4  0
 15 20  4  0
 16 17  4  0
 17 18  4  0
 17 21  1  0
 18 19  4  0
 19 20  4  0
 23 24  4  0
 24 25  1  0
 24 26  4  0
 26 27  4  0
 27 28  1  0
 28 29  1  0
 29 30  2  0
 29 31  1  0
 31 32  1  0
 32 33  1  0
 33 34  1  0
 34 35  1  0
 35 36  1  0
 35 37  1  0
 35 38  1  0
 34 39  1  0
 39 40  1  0
 40 41  1  0
 41 42  1  0
 41 43  1  0
 41 44  1  0
 40 45  1  0
 45 32  1  0
  2 23  4  0
  2 27  4  0
M  END
$$$$

     RDKit          3D

 45 50  0  0  0  0  0  0  0  0999 V2000
   -7.6410    4.9930    6.8080 C   0  0  0  0  0  0  0  0  0  1  0  0
   -7.7310    4.0530    5.7140 C   0  0  0  0  0  0  0  0  0  2  0  0
   -6.4520    5.6300    6.8680 N   0  0  0  0  0  0  0  0  0  0  0  0
   -6.2260    6.5240    7.8670 N   0  0  0  0  0  0  0  0  0  0  0  0
   -7.1930    6.7500    8.7820 C   0  0  0  0  0  0  0  0  0  0  0  0
   -8.4240    6.1170    8.7580 C   0  0  0  0  0  0  0  0  0  0  0  0
   -9.3950    6.3570    9.7450 N   0  0  0  0  0  0  0  0  0  0  0  0
  -10.5620    5.6840    9.7600 C   0  0  0  0  0  0  0  0  0  0  0  0
  -11.5770    5.6820   10.5960 N   0  0  0  0  0  0  0  0  0  0  0  0
  -12.4690    4.7490   10.1080 N   0  0  0  0  0  0  0  0  0  0  0  0
  -12.0160    4.1880    8.9920 N   0  0  0  0  0  0  0  0  0  0  0  0
  -10.8400    4.7900    8.7610 N   0  0  0  0  0  0  0  0  0  0  0  0
   -9.9950    4.4790    7.6090 C   0  0  0  0  0  0  0  0  0  0  0  0
   -8.6630    5.2070    7.7200 C   0  0  0  0  0  0  0  0  0  0  0  0
  -10.7490    4.8610    6.3730 C   0  0  0  0  0  0  0  0  0  0  0  0
  -11.0350    6.2020    6.1170 C   0  0  0  0  0  0  0  0  0  0  0  0
  -11.7370    6.5580    4.9650 C   0  0  0  0  0  0  0  0  0  0  0  0
  -12.1550    5.5730    4.0710 C   0  0  0  0  0  0  0  0  0  0  0  0
  -11.8700    4.2310    4.3270 C   0  0  0  0  0  0  0  0  0  0  0  0
  -11.1660    3.8760    5.4790 C   0  0  0  0  0  0  0  0  0  0  0  0
  -12.0160    7.8660    4.7150 O   0  0  0  0  0  0  0  0  0  0  0  0
   -6.8990    7.6510    9.7710 O   0  0  0  0  0  0  0  0  0  0  0  0
   -6.8166    3.0840    5.4330 N   0  0  0  0  0  0  0  0  0  0  0  0
   -7.1566    2.2503    4.4273 C   0  0  0  0  0  0  0  0  0  0  0  0
   -6.2581    1.1836    3.9046 C   0  0  0  0  0  0  0  0  0  0  0  0
   -8.6552    2.6405    3.7812 S   0  0  0  0  0  0  0  0  0  0  0  0
   -8.8993    3.9288    4.8414 C   0  0  0  0  0  0  0  0  0  0  0  0
  -10.1020    4.8322    4.8159 C   0  0  0  0  0  0  0  0  0  0  0  0
  -10.3648    5.3153    3.4210 C   0  0  0  0  0  0  0  0  0  0  0  0
   -9.5356    6.0934    2.8781 O   0  0  0  0  0  0  0  0  0  0  0  0
  -11.5380    4.8788    2.7132 N   0  0  0  0  0  0  0  0  0  0  0  0
  -11.7848    5.0867    1.2799 C   0  0  0  0  0  0  0  0  0  0  0  0
  -11.9724    6.5815    0.9542 C   0  0  0  0  0  0  0  0  0  0  0  0
  -12.1992    6.8456   -0.5539 C   0  0  0  0  0  0  0  0  0  0  0  0
  -13.6505    6.5745   -1.0179 C   0  0  0  0  0  0  0  0  0  0  0  0
  -13.7970    6.9518   -2.3412 F   0  0  0  0  0  0  0  0  0  0  0  0
  -13.9926    5.2416   -0.9011 F   0  0  0  0  0  0  0  0  0  0  0  0
  -14.5326    7.3240   -0.2598 F   0  0  0  0  0  0  0  0  0  0  0  0
  -11.1317    6.1312   -1.4196 C   0  0  0  0  0  0  0  0  0  0  0  0
  -10.9610    4.6335   -1.0755 C   0  0  0  0  0  0  0  0  0  0  0  0
   -9.8499    3.9934   -1.9309 C   0  0  0  0  0  0  0  0  0  0  0  0
   -8.6295    4.5974   -1.6837 F   0  0  0  0  0  0  0  0  0  0  0  0
   -9.7477    2.6439   -1.6409 F   0  0  0  0  0  0  0  0  0  0  0  0
  -10.1503    4.1269   -3.2753 F   0  0  0  0  0  0  0  0  0  0  0  0
  -10.6694    4.4580    0.4279 C   0  0  0  0  0  0  0  0  0  0  0  0
  1  3  4  0
  1 14  4  0
  1  2  1  0
  3  4  4  0
  4  5  4  0
  5  6  4  0
  5 22  1  0
  6  7  1  0
  6 14  4  0
  7  8  1  0
  8  9  4  0
  8 12  4  0
  9 10  4  0
 10 11  4  0
 11 12  4  0
 12 13  1  0
 13 14  1  0
 13 15  1  6
 15 16  4  0
 15 20  4  0
 16 17  4  0
 17 18  4  0
 17 21  1  0
 18 19  4  0
 19 20  4  0
 23 24  4  0
 24 25  1  0
 24 26  4  0
 26 27  4  0
 27 28  1  0
 28 29  1  0
 29 30  2  0
 29 31  1  0
 31 32  1  0
 32 33  1  0
 33 34  1  0
 34 35  1  0
 35 36  1  0
 35 37  1  0
 35 38  1  0
 34 39  1  0
 39 40  1  0
 40 41  1  0
 41 42  1  0
 41 43  1  0
 41 44  1  0
 40 45  1  0
 45 32  1  0
  2 23  4  0
  2 27  4  0
M  END
$$$$

     RDKit          3D

 45 50  0  0  0  0  0  0  0  0999 V2000
   -7.6410    4.9930    6.8080 C   0  0  0  0  0  0  0  0  0  1  0  0
   -7.7310    4.0530    5.7140 C   0  0  0  0  0  0  0  0  0  2  0  0
   -6.4520    5.6300    6.8680 N   0  0  0  0  0  0  0  0  0  0  0  0
   -6.2260    6.5240    7.8670 N   0  0  0  0  0  0  0  0  0  0  0  0
   -7.1930    6.7500    8.7820 C   0  0  0  0  0  0  0  0  0  0  0  0
   -8.4240    6.1170    8.7580 C   0  0  0  0  0  0  0  0  0  0  0  0
   -9.3950    6.3570    9.7450 N   0  0  0  0  0  0  0  0  0  0  0  0
  -10.5620    5.6840    9.7600 C   0  0  0  0  0  0  0  0  0  0  0  0
  -11.5770    5.6820   10.5960 N   0  0  0  0  0  0  0  0  0  0  0  0
  -12.4690    4.7490   10.1080 N   0  0  0  0  0  0  0  0  0  0  0  0
  -12.0160    4.1880    8.9920 N   0  0  0  0  0  0  0  0  0  0  0  0
  -10.8400    4.7900    8.7610 N   0  0  0  0  0  0  0  0  0  0  0  0
   -9.9950    4.4790    7.6090 C   0  0  0  0  0  0  0  0  0  0  0  0
   -8.6630    5.2070    7.7200 C   0  0  0  0  0  0  0  0  0  0  0  0
  -10.7490    4.8610    6.3730 C   0  0  0  0  0  0  0  0  0  0  0  0
  -11.0350    6.2020    6.1170 C   0  0  0  0  0  0  0  0  0  0  0  0
  -11.7370    6.5580    4.9650 C   0  0  0  0  0  0  0  0  0  0  0  0
  -12.1550    5.5730    4.0710 C   0  0  0  0  0  0  0  0  0  0  0  0
  -11.8700    4.2310    4.3270 C   0  0  0  0  0  0  0  0  0  0  0  0
  -11.1660    3.8760    5.4790 C   0  0  0  0  0  0  0  0  0  0  0  0
  -12.0160    7.8660    4.7150 O   0  0  0  0  0  0  0  0  0  0  0  0
   -6.8990    7.6510    9.7710 O   0  0  0  0  0  0  0  0  0  0  0  0
   -6.8605    3.0263    5.4862 N   0  0  0  0  0  0  0  0  0  0  0  0
   -7.1669    2.2521    4.4225 C   0  0  0  0  0  0  0  0  0  0  0  0
   -6.2929    1.1508    3.9306 C   0  0  0  0  0  0  0  0  0  0  0  0
   -8.5627    2.7845    3.6519 S   0  0  0  0  0  0  0  0  0  0  0  0
   -8.8281    4.0292    4.7535 C   0  0  0  0  0  0  0  0  0  0  0  0
   -9.9192    5.0530    4.6205 C   0  0  0  0  0  0  0  0  0  0  0  0
   -9.3397    6.3990    4.3134 C   0  0  0  0  0  0  0  0  0  0  0  0
   -9.5166    7.3504    5.1226 O   0  0  0  0  0  0  0  0  0  0  0  0
   -8.5875    6.5983    3.1074 N   0  0  0  0  0  0  0  0  0  0  0  0
   -7.9918    7.8896    2.7571 C   0  0  0  0  0  0  0  0  0  0  0  0
   -6.7050    7.6761    1.9417 C   0  0  0  0  0  0  0  0  0  0  0  0
   -5.9920    9.0181    1.6047 C   0  0  0  0  0  0  0  0  0  0  0  0
   -4.7866    9.2772    2.5308 C   0  0  0  0  0  0  0  0  0  0  0  0
   -4.1849   10.4812    2.2033 F   0  0  0  0  0  0  0  0  0  0  0  0
   -3.8504    8.2693    2.3802 F   0  0  0  0  0  0  0  0  0  0  0  0
   -5.1895    9.3201    3.8545 F   0  0  0  0  0  0  0  0  0  0  0  0
   -6.9650   10.2274    1.6048 C   0  0  0  0  0  0  0  0  0  0  0  0
   -8.3497    9.8199    1.0626 C   0  0  0  0  0  0  0  0  0  0  0  0
   -9.2663   11.0420    0.8681 C   0  0  0  0  0  0  0  0  0  0  0  0
  -10.4958   10.6334    0.3807 F   0  0  0  0  0  0  0  0  0  0  0  0
   -9.4554   11.7069    2.0679 F   0  0  0  0  0  0  0  0  0  0  0  0
   -8.7036   11.9156   -0.0462 F   0  0  0  0  0  0  0  0  0  0  0  0
   -9.0131    8.7494    1.9759 C   0  0  0  0  0  0  0  0  0  0  0  0
  1  3  4  0
  1 14  4  0
  1  2  1  0
  3  4  4  0
  4  5  4  0
  5  6  4  0
  5 22  1  0
  6  7  1  0
  6 14  4  0
  7  8  1  0
  8  9  4  0
  8 12  4  0
  9 10  4  0
 10 11  4  0
 11 12  4  0
 12 13  1  0
 13 14  1  0
 13 15  1  6
 15 16  4  0
 15 20  4  0
 16 17  4  0
 17 18  4  0
 17 21  1  0
 18 19  4  0
 19 20  4  0
 23 24  4  0
 24 25  1  0
 24 26  4  0
 26 27  4  0
 27 28  1  0
 28 29  1  0
 29 30  2  0
 29 31  1  0
 31 32  1  0
 32 33  1  0
 33 34  1  0
 34 35  1  0
 35 36  1  0
 35 37  1  0
 35 38  1  0
 34 39  1  0
 39 40  1  0
 40 41  1  0
 41 42  1  0
 41 43  1  0
 41 44  1  0
 40 45  1  0
 45 32  1  0
  2 23  4  0
  2 27  4  0
M  END
$$$$

     RDKit          3D

 30 34  0  0  0  0  0  0  0  0999 V2000
   -7.6410    4.9930    6.8080 C   0  0  0  0  0  0  0  0  0  1  0  0
   -7.7310    4.0530    5.7140 C   0  0  0  0  0  0  0  0  0  2  0  0
   -6.4520    5.6300    6.8680 N   0  0  0  0  0  0  0  0  0  0  0  0
   -6.2260    6.5240    7.8670 N   0  0  0  0  0  0  0  0  0  0  0  0
   -7.1930    6.7500    8.7820 C   0  0  0  0  0  0  0  0  0  0  0  0
   -8.4240    6.1170    8.7580 C   0  0  0  0  0  0  0  0  0  0  0  0
   -9.3950    6.3570    9.7450 N   0  0  0  0  0  0  0  0  0  0  0  0
  -10.5620    5.6840    9.7600 C   0  0  0  0  0  0  0  0  0  0  0  0
  -11.5770    5.6820   10.5960 N   0  0  0  0  0  0  0  0  0  0  0  0
  -12.4690    4.7490   10.1080 N   0  0  0  0  0  0  0  0  0  0  0  0
  -12.0160    4.1880    8.9920 N   0  0  0  0  0  0  0  0  0  0  0  0
  -10.8400    4.7900    8.7610 N   0  0  0  0  0  0  0  0  0  0  0  0
   -9.9950    4.4790    7.6090 C   0  0  0  0  0  0  0  0  0  0  0  0
   -8.6630    5.2070    7.7200 C   0  0  0  0  0  0  0  0  0  0  0  0
  -10.7490    4.8610    6.3730 C   0  0  0  0  0  0  0  0  0  0  0  0
  -11.0350    6.2020    6.1170 C   0  0  0  0  0  0  0  0  0  0  0  0
  -11.7370    6.5580    4.9650 C   0  0  0  0  0  0  0  0  0  0  0  0
  -12.1550    5.5730    4.0710 C   0  0  0  0  0  0  0  0  0  0  0  0
  -11.8700    4.2310    4.3270 C   0  0  0  0  0  0  0  0  0  0  0  0
  -11.1660    3.8760    5.4790 C   0  0  0  0  0  0  0  0  0  0  0  0
  -12.0160    7.8660    4.7150 O   0  0  0  0  0  0  0  0  0  0  0  0
   -6.8990    7.6510    9.7710 O   0  0  0  0  0  0  0  0  0  0  0  0
   -6.8950    2.9180    5.6276 C   0  0  0  0  0  0  0  0  0  0  0  0
   -7.0550    1.9152    4.6713 C   0  0  0  0  0  0  0  0  0  0  0  0
   -8.1097    1.9786    3.7633 C   0  0  0  0  0  0  0  0  0  0  0  0
   -8.9994    3.0537    3.7967 C   0  0  0  0  0  0  0  0  0  0  0  0
   -8.8472    4.0866    4.7419 C   0  0  0  0  0  0  0  0  0  0  0  0
   -9.7711    5.2468    4.6797 C   0  0  0  0  0  0  0  0  0  0  0  0
  -10.9177    5.1179    4.1738 O   0  0  0  0  0  0  0  0  0  0  0  0
   -9.3757    6.5000    5.1326 O   0  0  0  0  0  0  0  0  0  0  0  0
  1  3  4  0
  1 14  4  0
  1  2  1  0
  3  4  4  0
  4  5  4  0
  5  6  4  0
  5 22  1  0
  6  7  1  0
  6 14  4  0
  7  8  1  0
  8  9  4  0
  8 12  4  0
  9 10  4  0
 10 11  4  0
 11 12  4  0
 12 13  1  0
 13 14  1  0
 13 15  1  6
 15 16  4  0
 15 20  4  0
 16 17  4  0
 17 18  4  0
 17 21  1  0
 18 19  4  0
 19 20  4  0
 23 24  4  0
 24 25  4  0
 25 26  4  0
 26 27  4  0
 27 28  1  0
 28 29  2  0
 28 30  1  0
  2 23  4  0
  2 27  4  0
M  CHG  1  30  -1
M  END
$$$$

     RDKit          3D

 30 34  0  0  0  0  0  0  0  0999 V2000
   -7.6410    4.9930    6.8080 C   0  0  0  0  0  0  0  0  0  1  0  0
   -7.7310    4.0530    5.7140 C   0  0  0  0  0  0  0  0  0  2  0  0
   -6.4520    5.6300    6.8680 N   0  0  0  0  0  0  0  0  0  0  0  0
   -6.2260    6.5240    7.8670 N   0  0  0  0  0  0  0  0  0  0  0  0
   -7.1930    6.7500    8.7820 C   0  0  0  0  0  0  0  0  0  0  0  0
   -8.4240    6.1170    8.7580 C   0  0  0  0  0  0  0  0  0  0  0  0
   -9.3950    6.3570    9.7450 N   0  0  0  0  0  0  0  0  0  0  0  0
  -10.5620    5.6840    9.7600 C   0  0  0  0  0  0  0  0  0  0  0  0
  -11.5770    5.6820   10.5960 N   0  0  0  0  0  0  0  0  0  0  0  0
  -12.4690    4.7490   10.1080 N   0  0  0  0  0  0  0  0  0  0  0  0
  -12.0160    4.1880    8.9920 N   0  0  0  0  0  0  0  0  0  0  0  0
  -10.8400    4.7900    8.7610 N   0  0  0  0  0  0  0  0  0  0  0  0
   -9.9950    4.4790    7.6090 C   0  0  0  0  0  0  0  0  0  0  0  0
   -8.6630    5.2070    7.7200 C   0  0  0  0  0  0  0  0  0  0  0  0
  -10.7490    4.8610    6.3730 C   0  0  0  0  0  0  0  0  0  0  0  0
  -11.0350    6.2020    6.1170 C   0  0  0  0  0  0  0  0  0  0  0  0
  -11.7370    6.5580    4.9650 C   0  0  0  0  0  0  0  0  0  0  0  0
  -12.1550    5.5730    4.0710 C   0  0  0  0  0  0  0  0  0  0  0  0
  -11.8700    4.2310    4.3270 C   0  0  0  0  0  0  0  0  0  0  0  0
  -11.1660    3.8760    5.4790 C   0  0  0  0  0  0  0  0  0  0  0  0
  -12.0160    7.8660    4.7150 O   0  0  0  0  0  0  0  0  0  0  0  0
   -6.8990    7.6510    9.7710 O   0  0  0  0  0  0  0  0  0  0  0  0
   -6.7917    3.0200    5.5644 C   0  0  0  0  0  0  0  0  0  0  0  0
   -6.9293    2.0118    4.6100 C   0  0  0  0  0  0  0  0  0  0  0  0
   -8.0431    1.9897    3.7735 C   0  0  0  0  0  0  0  0  0  0  0  0
   -9.0133    2.9884    3.8721 C   0  0  0  0  0  0  0  0  0  0  0  0
   -8.8855    4.0263    4.8138 C   0  0  0  0  0  0  0  0  0  0  0  0
   -9.8927    5.1152    4.7965 C   0  0  0  0  0  0  0  0  0  0  0  0
   -9.5935    6.2793    5.1722 O   0  0  0  0  0  0  0  0  0  0  0  0
  -11.1734    4.8734    4.3127 O   0  0  0  0  0  0  0  0  0  0  0  0
  1  3  4  0
  1 14  4  0
  1  2  1  0
  3  4  4  0
  4  5  4  0
  5  6  4  0
  5 22  1  0
  6  7  1  0
  6 14  4  0
  7  8  1  0
  8  9  4  0
  8 12  4  0
  9 10  4  0
 10 11  4  0
 11 12  4  0
 12 13  1  0
 13 14  1  0
 13 15  1  6
 15 16  4  0
 15 20  4  0
 16 17  4  0
 17 18  4  0
 17 21  1  0
 18 19  4  0
 19 20  4  0
 23 24  4  0
 24 25  4  0
 25 26  4  0
 26 27  4  0
 27 28  1  0
 28 29  2  0
 28 30  1  0
  2 23  4  0
  2 27  4  0
M  CHG  1  30  -1
M  END
$$$$

     RDKit          3D

 41 46  0  0  0  0  0  0  0  0999 V2000
   -7.6410    4.9930    6.8080 C   0  0  0  0  0  0  0  0  0  1  0  0
   -7.7310    4.0530    5.7140 C   0  0  0  0  0  0  0  0  0  2  0  0
   -6.4520    5.6300    6.8680 N   0  0  0  0  0  0  0  0  0  0  0  0
   -6.2260    6.5240    7.8670 N   0  0  0  0  0  0  0  0  0  0  0  0
   -7.1930    6.7500    8.7820 C   0  0  0  0  0  0  0  0  0  0  0  0
   -8.4240    6.1170    8.7580 C   0  0  0  0  0  0  0  0  0  0  0  0
   -9.3950    6.3570    9.7450 N   0  0  0  0  0  0  0  0  0  0  0  0
  -10.5620    5.6840    9.7600 C   0  0  0  0  0  0  0  0  0  0  0  0
  -11.5770    5.6820   10.5960 N   0  0  0  0  0  0  0  0  0  0  0  0
  -12.4690    4.7490   10.1080 N   0  0  0  0  0  0  0  0  0  0  0  0
  -12.0160    4.1880    8.9920 N   0  0  0  0  0  0  0  0  0  0  0  0
  -10.8400    4.7900    8.7610 N   0  0  0  0  0  0  0  0  0  0  0  0
   -9.9950    4.4790    7.6090 C   0  0  0  0  0  0  0  0  0  0  0  0
   -8.6630    5.2070    7.7200 C   0  0  0  0  0  0  0  0  0  0  0  0
  -10.7490    4.8610    6.3730 C   0  0  0  0  0  0  0  0  0  0  0  0
  -11.0350    6.2020    6.1170 C   0  0  0  0  0  0  0  0  0  0  0  0
  -11.7370    6.5580    4.9650 C   0  0  0  0  0  0  0  0  0  0  0  0
  -12.1550    5.5730    4.0710 C   0  0  0  0  0  0  0  0  0  0  0  0
  -11.8700    4.2310    4.3270 C   0  0  0  0  0  0  0  0  0  0  0  0
  -11.1660    3.8760    5.4790 C   0  0  0  0  0  0  0  0  0  0  0  0
  -12.0160    7.8660    4.7150 O   0  0  0  0  0  0  0  0  0  0  0  0
   -6.8990    7.6510    9.7710 O   0  0  0  0  0  0  0  0  0  0  0  0
   -6.8391    2.9986    5.4369 C   0  0  0  0  0  0  0  0  0  0  0  0
   -7.1740    2.1616    4.3851 C   0  0  0  0  0  0  0  0  0  0  0  0
   -8.6447    2.6731    3.7615 S   0  0  0  0  0  0  0  0  0  0  0  0
   -8.8864    3.9553    4.8231 C   0  0  0  0  0  0  0  0  0  0  0  0
   -9.9815    4.9423    4.7179 C   0  0  0  0  0  0  0  0  0  0  0  0
   -9.7750    6.1350    5.0677 O   0  0  0  0  0  0  0  0  0  0  0  0
  -11.2693    4.5884    4.2040 N   0  0  0  0  0  0  0  0  0  0  0  0
  -11.6397    3.2545    3.9794 N   0  0  0  0  0  0  0  0  0  0  0  0
  -12.4376    2.6789    5.4051 S   0  0  0  0  0  0  0  0  0  0  0  0
  -11.4278    2.4066    6.4800 O   0  0  0  0  0  0  0  0  0  0  0  0
  -13.4041    3.7196    5.9066 O   0  0  0  0  0  0  0  0  0  0  0  0
  -13.3109    1.1943    5.0102 C   0  0  0  0  0  0  0  0  0  0  0  0
  -14.6938    1.2594    4.7833 C   0  0  0  0  0  0  0  0  0  0  0  0
  -15.4116    0.1100    4.4452 C   0  0  0  0  0  0  0  0  0  0  0  0
  -14.7598   -1.1241    4.3287 C   0  0  0  0  0  0  0  0  0  0  0  0
  -15.5404   -2.3340    3.9316 C   0  0  0  0  0  0  0  0  0  0  0  0
  -13.3736   -1.1887    4.5225 C   0  0  0  0  0  0  0  0  0  0  0  0
  -12.6452   -0.0425    4.8593 C   0  0  0  0  0  0  0  0  0  0  0  0
  -10.9039   -0.1943    5.0516 Cl  0  0  0  0  0  0  0  0  0  0  0  0
  1  3  4  0
  1 14  4  0
  1  2  1  0
  3  4  4  0
  4  5  4  0
  5  6  4  0
  5 22  1  0
  6  7  1  0
  6 14  4  0
  7  8  1  0
  8  9  4  0
  8 12  4  0
  9 10  4  0
 10 11  4  0
 11 12  4  0
 12 13  1  0
 13 14  1  0
 13 15  1  6
 15 16  4  0
 15 20  4  0
 16 17  4  0
 17 18  4  0
 17 21  1  0
 18 19  4  0
 19 20  4  0
 23 24  4  0
 24 25  4  0
 25 26  4  0
 26 27  1  0
 27 28  2  0
 27 29  1  0
 29 30  1  0
 30 31  1  0
 31 32  2  0
 31 33  2  0
 31 34  1  0
 34 35  4  0
 35 36  4  0
 36 37  4  0
 37 38  1  0
 37 39  4  0
 39 40  4  0
 40 41  1  0
 40 34  4  0
  2 23  4  0
  2 26  4  0
M  END
$$$$

     RDKit          3D

 41 47  0  0  0  0  0  0  0  0999 V2000
   -7.6410    4.9930    6.8080 C   0  0  0  0  0  0  0  0  0  1  0  0
   -7.7310    4.0530    5.7140 C   0  0  0  0  0  0  0  0  0  2  0  0
   -6.4520    5.6300    6.8680 N   0  0  0  0  0  0  0  0  0  0  0  0
   -6.2260    6.5240    7.8670 N   0  0  0  0  0  0  0  0  0  0  0  0
   -7.1930    6.7500    8.7820 C   0  0  0  0  0  0  0  0  0  0  0  0
   -8.4240    6.1170    8.7580 C   0  0  0  0  0  0  0  0  0  0  0  0
   -9.3950    6.3570    9.7450 N   0  0  0  0  0  0  0  0  0  0  0  0
  -10.5620    5.6840    9.7600 C   0  0  0  0  0  0  0  0  0  0  0  0
  -11.5770    5.6820   10.5960 N   0  0  0  0  0  0  0  0  0  0  0  0
  -12.4690    4.7490   10.1080 N   0  0  0  0  0  0  0  0  0  0  0  0
  -12.0160    4.1880    8.9920 N   0  0  0  0  0  0  0  0  0  0  0  0
  -10.8400    4.7900    8.7610 N   0  0  0  0  0  0  0  0  0  0  0  0
   -9.9950    4.4790    7.6090 C   0  0  0  0  0  0  0  0  0  0  0  0
   -8.6630    5.2070    7.7200 C   0  0  0  0  0  0  0  0  0  0  0  0
  -10.7490    4.8610    6.3730 C   0  0  0  0  0  0  0  0  0  0  0  0
  -11.0350    6.2020    6.1170 C   0  0  0  0  0  0  0  0  0  0  0  0
  -11.7370    6.5580    4.9650 C   0  0  0  0  0  0  0  0  0  0  0  0
  -12.1550    5.5730    4.0710 C   0  0  0  0  0  0  0  0  0  0  0  0
  -11.8700    4.2310    4.3270 C   0  0  0  0  0  0  0  0  0  0  0  0
  -11.1660    3.8760    5.4790 C   0  0  0  0  0  0  0  0  0  0  0  0
  -12.0160    7.8660    4.7150 O   0  0  0  0  0  0  0  0  0  0  0  0
   -6.8990    7.6510    9.7710 O   0  0  0  0  0  0  0  0  0  0  0  0
   -6.8644    3.0563    5.4178 N   0  0  0  0  0  0  0  0  0  0  0  0
   -7.3069    2.4029    4.3568 N   0  0  0  0  0  0  0  0  0  0  0  0
   -8.4706    2.9589    3.9838 C   0  0  0  0  0  0  0  0  0  0  0  0
   -9.3081    2.5005    2.6515 S   0  0  0  0  0  0  0  0  0  0  0  0
   -8.8148    3.9718    4.8078 N   0  0  0  0  0  0  0  0  0  0  0  0
   -9.8865    4.9553    4.6135 C   0  0  0  0  0  0  0  0  0  0  0  0
   -9.3842    6.1203    3.7563 C   0  0  0  0  0  0  0  0  0  0  0  0
  -10.4753    7.1210    3.5150 C   0  0  0  0  0  0  0  0  0  0  0  0
  -10.3824    8.2698    4.0263 O   0  0  0  0  0  0  0  0  0  0  0  0
  -11.6040    6.7702    2.6985 N   0  0  0  0  0  0  0  0  0  0  0  0
  -12.6791    7.6735    2.3965 C   0  0  0  0  0  0  0  0  0  0  0  0
  -12.7271    8.9681    2.7857 N   0  0  0  0  0  0  0  0  0  0  0  0
  -13.8608    9.4806    2.3146 N   0  0  0  0  0  0  0  0  0  0  0  0
  -14.4762    8.4852    1.6491 C   0  0  0  0  0  0  0  0  0  0  0  0
  -15.6996    8.5552    0.9885 C   0  0  0  0  0  0  0  0  0  0  0  0
  -16.1630    7.3859    0.3603 C   0  0  0  0  0  0  0  0  0  0  0  0
  -15.4020    6.1994    0.4090 C   0  0  0  0  0  0  0  0  0  0  0  0
  -14.1742    6.1930    1.0894 C   0  0  0  0  0  0  0  0  0  0  0  0
  -13.7690    7.3475    1.6805 N   0  0  0  0  0  0  0  0  0  0  0  0
  1  3  4  0
  1 14  4  0
  1  2  1  0
  3  4  4  0
  4  5  4  0
  5  6  4  0
  5 22  1  0
  6  7  1  0
  6 14  4  0
  7  8  1  0
  8  9  4  0
  8 12  4  0
  9 10  4  0
 10 11  4  0
 11 12  4  0
 12 13  1  0
 13 14  1  0
 13 15  1  6
 15 16  4  0
 15 20  4  0
 16 17  4  0
 17 18  4  0
 17 21  1  0
 18 19  4  0
 19 20  4  0
 23 24  4  0
 24 25  4  0
 25 26  2  0
 25 27  4  0
 27 28  1  0
 28 29  1  0
 29 30  1  0
 30 31  2  0
 30 32  1  0
 32 33  1  0
 33 34  4  0
 34 35  4  0
 35 36  4  0
 36 37  4  0
 37 38  4  0
 38 39  4  0
 39 40  4  0
 40 41  4  0
 41 33  4  0
 41 36  4  0
  2 23  4  0
  2 27  4  0
M  END
$$$$

     RDKit          3D

 41 47  0  0  0  0  0  0  0  0999 V2000
   -7.6410    4.9930    6.8080 C   0  0  0  0  0  0  0  0  0  1  0  0
   -7.7310    4.0530    5.7140 C   0  0  0  0  0  0  0  0  0  2  0  0
   -6.4520    5.6300    6.8680 N   0  0  0  0  0  0  0  0  0  0  0  0
   -6.2260    6.5240    7.8670 N   0  0  0  0  0  0  0  0  0  0  0  0
   -7.1930    6.7500    8.7820 C   0  0  0  0  0  0  0  0  0  0  0  0
   -8.4240    6.1170    8.7580 C   0  0  0  0  0  0  0  0  0  0  0  0
   -9.3950    6.3570    9.7450 N   0  0  0  0  0  0  0  0  0  0  0  0
  -10.5620    5.6840    9.7600 C   0  0  0  0  0  0  0  0  0  0  0  0
  -11.5770    5.6820   10.5960 N   0  0  0  0  0  0  0  0  0  0  0  0
  -12.4690    4.7490   10.1080 N   0  0  0  0  0  0  0  0  0  0  0  0
  -12.0160    4.1880    8.9920 N   0  0  0  0  0  0  0  0  0  0  0  0
  -10.8400    4.7900    8.7610 N   0  0  0  0  0  0  0  0  0  0  0  0
   -9.9950    4.4790    7.6090 C   0  0  0  0  0  0  0  0  0  0  0  0
   -8.6630    5.2070    7.7200 C   0  0  0  0  0  0  0  0  0  0  0  0
  -10.7490    4.8610    6.3730 C   0  0  0  0  0  0  0  0  0  0  0  0
  -11.0350    6.2020    6.1170 C   0  0  0  0  0  0  0  0  0  0  0  0
  -11.7370    6.5580    4.9650 C   0  0  0  0  0  0  0  0  0  0  0  0
  -12.1550    5.5730    4.0710 C   0  0  0  0  0  0  0  0  0  0  0  0
  -11.8700    4.2310    4.3270 C   0  0  0  0  0  0  0  0  0  0  0  0
  -11.1660    3.8760    5.4790 C   0  0  0  0  0  0  0  0  0  0  0  0
  -12.0160    7.8660    4.7150 O   0  0  0  0  0  0  0  0  0  0  0  0
   -6.8990    7.6510    9.7710 O   0  0  0  0  0  0  0  0  0  0  0  0
   -6.8504    3.0753    5.3989 N   0  0  0  0  0  0  0  0  0  0  0  0
   -7.2913    2.4258    4.3346 N   0  0  0  0  0  0  0  0  0  0  0  0
   -8.4675    2.9665    3.9778 C   0  0  0  0  0  0  0  0  0  0  0  0
   -9.3020    2.5154    2.6404 S   0  0  0  0  0  0  0  0  0  0  0  0
   -8.8212    3.9661    4.8148 N   0  0  0  0  0  0  0  0  0  0  0  0
   -9.8906    4.9532    4.6232 C   0  0  0  0  0  0  0  0  0  0  0  0
   -9.3755    6.1331    3.7928 C   0  0  0  0  0  0  0  0  0  0  0  0
  -10.4097    7.2143    3.6821 C   0  0  0  0  0  0  0  0  0  0  0  0
  -10.2121    8.3184    4.2586 O   0  0  0  0  0  0  0  0  0  0  0  0
  -11.6185    6.9886    2.9425 N   0  0  0  0  0  0  0  0  0  0  0  0
  -12.5825    8.0195    2.7013 C   0  0  0  0  0  0  0  0  0  0  0  0
  -13.9112    7.8530    2.8798 N   0  0  0  0  0  0  0  0  0  0  0  0
  -14.5009    8.9905    2.5236 N   0  0  0  0  0  0  0  0  0  0  0  0
  -13.5160    9.8175    2.1233 C   0  0  0  0  0  0  0  0  0  0  0  0
  -13.6642   11.1080    1.6219 C   0  0  0  0  0  0  0  0  0  0  0  0
  -12.5017   11.7759    1.1992 C   0  0  0  0  0  0  0  0  0  0  0  0
  -11.2460   11.1393    1.2757 C   0  0  0  0  0  0  0  0  0  0  0  0
  -11.1617    9.8353    1.7882 C   0  0  0  0  0  0  0  0  0  0  0  0
  -12.3086    9.2424    2.2120 N   0  0  0  0  0  0  0  0  0  0  0  0
  1  3  4  0
  1 14  4  0
  1  2  1  0
  3  4  4  0
  4  5  4  0
  5  6  4  0
  5 22  1  0
  6  7  1  0
  6 14  4  0
  7  8  1  0
  8  9  4  0
  8 12  4  0
  9 10  4  0
 10 11  4  0
 11 12  4  0
 12 13  1  0
 13 14  1  0
 13 15  1  6
 15 16  4  0
 15 20  4  0
 16 17  4  0
 17 18  4  0
 17 21  1  0
 18 19  4  0
 19 20  4  0
 23 24  4  0
 24 25  4  0
 25 26  2  0
 25 27  4  0
 27 28  1  0
 28 29  1  0
 29 30  1  0
 30 31  2  0
 30 32  1  0
 32 33  1  0
 33 34  4  0
 34 35  4  0
 35 36  4  0
 36 37  4  0
 37 38  4  0
 38 39  4  0
 39 40  4  0
 40 41  4  0
 41 33  4  0
 41 36  4  0
  2 23  4  0
  2 27  4  0
M  END
$$$$

     RDKit          3D

 41 47  0  0  0  0  0  0  0  0999 V2000
   -7.6410    4.9930    6.8080 C   0  0  0  0  0  0  0  0  0  1  0  0
   -7.7310    4.0530    5.7140 C   0  0  0  0  0  0  0  0  0  2  0  0
   -6.4520    5.6300    6.8680 N   0  0  0  0  0  0  0  0  0  0  0  0
   -6.2260    6.5240    7.8670 N   0  0  0  0  0  0  0  0  0  0  0  0
   -7.1930    6.7500    8.7820 C   0  0  0  0  0  0  0  0  0  0  0  0
   -8.4240    6.1170    8.7580 C   0  0  0  0  0  0  0  0  0  0  0  0
   -9.3950    6.3570    9.7450 N   0  0  0  0  0  0  0  0  0  0  0  0
  -10.5620    5.6840    9.7600 C   0  0  0  0  0  0  0  0  0  0  0  0
  -11.5770    5.6820   10.5960 N   0  0  0  0  0  0  0  0  0  0  0  0
  -12.4690    4.7490   10.1080 N   0  0  0  0  0  0  0  0  0  0  0  0
  -12.0160    4.1880    8.9920 N   0  0  0  0  0  0  0  0  0  0  0  0
  -10.8400    4.7900    8.7610 N   0  0  0  0  0  0  0  0  0  0  0  0
   -9.9950    4.4790    7.6090 C   0  0  0  0  0  0  0  0  0  0  0  0
   -8.6630    5.2070    7.7200 C   0  0  0  0  0  0  0  0  0  0  0  0
  -10.7490    4.8610    6.3730 C   0  0  0  0  0  0  0  0  0  0  0  0
  -11.0350    6.2020    6.1170 C   0  0  0  0  0  0  0  0  0  0  0  0
  -11.7370    6.5580    4.9650 C   0  0  0  0  0  0  0  0  0  0  0  0
  -12.1550    5.5730    4.0710 C   0  0  0  0  0  0  0  0  0  0  0  0
  -11.8700    4.2310    4.3270 C   0  0  0  0  0  0  0  0  0  0  0  0
  -11.1660    3.8760    5.4790 C   0  0  0  0  0  0  0  0  0  0  0  0
  -12.0160    7.8660    4.7150 O   0  0  0  0  0  0  0  0  0  0  0  0
   -6.8990    7.6510    9.7710 O   0  0  0  0  0  0  0  0  0  0  0  0
   -6.8607    3.0564    5.4280 N   0  0  0  0  0  0  0  0  0  0  0  0
   -7.3361    2.3399    4.4233 N   0  0  0  0  0  0  0  0  0  0  0  0
   -8.5280    2.8520    4.0781 C   0  0  0  0  0  0  0  0  0  0  0  0
   -9.4611    2.2408    2.8747 S   0  0  0  0  0  0  0  0  0  0  0  0
   -8.8483    3.9146    4.8500 N   0  0  0  0  0  0  0  0  0  0  0  0
   -9.9974    4.8204    4.6931 C   0  0  0  0  0  0  0  0  0  0  0  0
   -9.8279    5.7398    3.4704 C   0  0  0  0  0  0  0  0  0  0  0  0
   -8.7691    6.8033    3.6400 C   0  0  0  0  0  0  0  0  0  0  0  0
   -8.3771    7.1193    4.7960 O   0  0  0  0  0  0  0  0  0  0  0  0
   -8.1804    7.4705    2.5110 N   0  0  0  0  0  0  0  0  0  0  0  0
   -8.7236    7.4753    1.1801 C   0  0  0  0  0  0  0  0  0  0  0  0
   -9.9765    7.0802    0.8571 N   0  0  0  0  0  0  0  0  0  0  0  0
  -10.1308    7.2793   -0.4492 N   0  0  0  0  0  0  0  0  0  0  0  0
   -8.9700    7.7993   -0.8898 C   0  0  0  0  0  0  0  0  0  0  0  0
   -8.6660    8.1753   -2.1958 C   0  0  0  0  0  0  0  0  0  0  0  0
   -7.3861    8.7052   -2.4349 C   0  0  0  0  0  0  0  0  0  0  0  0
   -6.4614    8.8414   -1.3788 C   0  0  0  0  0  0  0  0  0  0  0  0
   -6.8270    8.4434   -0.0832 C   0  0  0  0  0  0  0  0  0  0  0  0
   -8.0753    7.9388    0.0976 N   0  0  0  0  0  0  0  0  0  0  0  0
  1  3  4  0
  1 14  4  0
  1  2  1  0
  3  4  4  0
  4  5  4  0
  5  6  4  0
  5 22  1  0
  6  7  1  0
  6 14  4  0
  7  8  1  0
  8  9  4  0
  8 12  4  0
  9 10  4  0
 10 11  4  0
 11 12  4  0
 12 13  1  0
 13 14  1  0
 13 15  1  6
 15 16  4  0
 15 20  4  0
 16 17  4  0
 17 18  4  0
 17 21  1  0
 18 19  4  0
 19 20  4  0
 23 24  4  0
 24 25  4  0
 25 26  2  0
 25 27  4  0
 27 28  1  0
 28 29  1  0
 29 30  1  0
 30 31  2  0
 30 32  1  0
 32 33  1  0
 33 34  4  0
 34 35  4  0
 35 36  4  0
 36 37  4  0
 37 38  4  0
 38 39  4  0
 39 40  4  0
 40 41  4  0
 41 33  4  0
 41 36  4  0
  2 23  4  0
  2 27  4  0
M  END
$$$$

     RDKit          3D

 27 31  0  0  0  0  0  0  0  0999 V2000
   -7.6410    4.9930    6.8080 C   0  0  0  0  0  0  0  0  0  1  0  0
   -7.7310    4.0530    5.7140 C   0  0  0  0  0  0  0  0  0  2  0  0
   -6.4520    5.6300    6.8680 N   0  0  0  0  0  0  0  0  0  0  0  0
   -6.2260    6.5240    7.8670 N   0  0  0  0  0  0  0  0  0  0  0  0
   -7.1930    6.7500    8.7820 C   0  0  0  0  0  0  0  0  0  0  0  0
   -8.4240    6.1170    8.7580 C   0  0  0  0  0  0  0  0  0  0  0  0
   -9.3950    6.3570    9.7450 N   0  0  0  0  0  0  0  0  0  0  0  0
  -10.5620    5.6840    9.7600 C   0  0  0  0  0  0  0  0  0  0  0  0
  -11.5770    5.6820   10.5960 N   0  0  0  0  0  0  0  0  0  0  0  0
  -12.4690    4.7490   10.1080 N   0  0  0  0  0  0  0  0  0  0  0  0
  -12.0160    4.1880    8.9920 N   0  0  0  0  0  0  0  0  0  0  0  0
  -10.8400    4.7900    8.7610 N   0  0  0  0  0  0  0  0  0  0  0  0
   -9.9950    4.4790    7.6090 C   0  0  0  0  0  0  0  0  0  0  0  0
   -8.6630    5.2070    7.7200 C   0  0  0  0  0  0  0  0  0  0  0  0
  -10.7490    4.8610    6.3730 C   0  0  0  0  0  0  0  0  0  0  0  0
  -11.0350    6.2020    6.1170 C   0  0  0  0  0  0  0  0  0  0  0  0
  -11.7370    6.5580    4.9650 C   0  0  0  0  0  0  0  0  0  0  0  0
  -12.1550    5.5730    4.0710 C   0  0  0  0  0  0  0  0  0  0  0  0
  -11.8700    4.2310    4.3270 C   0  0  0  0  0  0  0  0  0  0  0  0
  -11.1660    3.8760    5.4790 C   0  0  0  0  0  0  0  0  0  0  0  0
  -12.0160    7.8660    4.7150 O   0  0  0  0  0  0  0  0  0  0  0  0
   -6.8990    7.6510    9.7710 O   0  0  0  0  0  0  0  0  0  0  0  0
   -6.8000    3.1602    5.2032 C   0  0  0  0  0  0  0  0  0  0  0  0
   -7.2902    2.3999    4.2072 N   0  0  0  0  0  0  0  0  0  0  0  0
   -8.5780    2.7465    4.0326 C   0  0  0  0  0  0  0  0  0  0  0  0
   -8.9198    3.7465    4.9223 C   0  0  0  0  0  0  0  0  0  0  0  0
  -10.2605    4.4061    5.0074 C   0  0  0  0  0  0  0  0  0  0  0  0
  1  3  4  0
  1 14  4  0
  1  2  1  0
  3  4  4  0
  4  5  4  0
  5  6  4  0
  5 22  1  0
  6  7  1  0
  6 14  4  0
  7  8  1  0
  8  9  4  0
  8 12  4  0
  9 10  4  0
 10 11  4  0
 11 12  4  0
 12 13  1  0
 13 14  1  0
 13 15  1  6
 15 16  4  0
 15 20  4  0
 16 17  4  0
 17 18  4  0
 17 21  1  0
 18 19  4  0
 19 20  4  0
 23 24  4  0
 24 25  4  0
 25 26  4  0
 26 27  1  0
  2 23  4  0
  2 26  4  0
M  END
$$$$

     RDKit          3D

 31 35  0  0  0  0  0  0  0  0999 V2000
   -7.6410    4.9930    6.8080 C   0  0  0  0  0  0  0  0  0  1  0  0
   -7.7310    4.0530    5.7140 C   0  0  0  0  0  0  0  0  0  2  0  0
   -6.4520    5.6300    6.8680 N   0  0  0  0  0  0  0  0  0  0  0  0
   -6.2260    6.5240    7.8670 N   0  0  0  0  0  0  0  0  0  0  0  0
   -7.1930    6.7500    8.7820 C   0  0  0  0  0  0  0  0  0  0  0  0
   -8.4240    6.1170    8.7580 C   0  0  0  0  0  0  0  0  0  0  0  0
   -9.3950    6.3570    9.7450 N   0  0  0  0  0  0  0  0  0  0  0  0
  -10.5620    5.6840    9.7600 C   0  0  0  0  0  0  0  0  0  0  0  0
  -11.5770    5.6820   10.5960 N   0  0  0  0  0  0  0  0  0  0  0  0
  -12.4690    4.7490   10.1080 N   0  0  0  0  0  0  0  0  0  0  0  0
  -12.0160    4.1880    8.9920 N   0  0  0  0  0  0  0  0  0  0  0  0
  -10.8400    4.7900    8.7610 N   0  0  0  0  0  0  0  0  0  0  0  0
   -9.9950    4.4790    7.6090 C   0  0  0  0  0  0  0  0  0  0  0  0
   -8.6630    5.2070    7.7200 C   0  0  0  0  0  0  0  0  0  0  0  0
  -10.7490    4.8610    6.3730 C   0  0  0  0  0  0  0  0  0  0  0  0
  -11.0350    6.2020    6.1170 C   0  0  0  0  0  0  0  0  0  0  0  0
  -11.7370    6.5580    4.9650 C   0  0  0  0  0  0  0  0  0  0  0  0
  -12.1550    5.5730    4.0710 C   0  0  0  0  0  0  0  0  0  0  0  0
  -11.8700    4.2310    4.3270 C   0  0  0  0  0  0  0  0  0  0  0  0
  -11.1660    3.8760    5.4790 C   0  0  0  0  0  0  0  0  0  0  0  0
  -12.0160    7.8660    4.7150 O   0  0  0  0  0  0  0  0  0  0  0  0
   -6.8990    7.6510    9.7710 O   0  0  0  0  0  0  0  0  0  0  0  0
   -7.0698    2.7994    5.7644 C   0  0  0  0  0  0  0  0  0  0  0  0
   -7.2293    1.8200    4.7850 C   0  0  0  0  0  0  0  0  0  0  0  0
   -8.1071    2.0317    3.7226 C   0  0  0  0  0  0  0  0  0  0  0  0
   -8.8083    3.2337    3.6206 C   0  0  0  0  0  0  0  0  0  0  0  0
   -8.6459    4.2476    4.5859 C   0  0  0  0  0  0  0  0  0  0  0  0
   -9.4137    5.5483    4.4445 C   0  0  0  0  0  0  0  0  0  0  0  0
  -10.4773    5.5553    5.3252 F   0  0  0  0  0  0  0  0  0  0  0  0
   -8.5914    6.6262    4.7149 F   0  0  0  0  0  0  0  0  0  0  0  0
   -9.9066    5.7079    3.1602 F   0  0  0  0  0  0  0  0  0  0  0  0
  1  3  4  0
  1 14  4  0
  1  2  1  0
  3  4  4  0
  4  5  4  0
  5  6  4  0
  5 22  1  0
  6  7  1  0
  6 14  4  0
  7  8  1  0
  8  9  4  0
  8 12  4  0
  9 10  4  0
 10 11  4  0
 11 12  4  0
 12 13  1  0
 13 14  1  0
 13 15  1  6
 15 16  4  0
 15 20  4  0
 16 17  4  0
 17 18  4  0
 17 21  1  0
 18 19  4  0
 19 20  4  0
 23 24  4  0
 24 25  4  0
 25 26  4  0
 26 27  4  0
 27 28  1  0
 28 29  1  0
 28 30  1  0
 28 31  1  0
  2 23  4  0
  2 27  4  0
M  END
$$$$

     RDKit          3D

 36 42  0  0  0  0  0  0  0  0999 V2000
   -7.6410    4.9930    6.8080 C   0  0  0  0  0  0  0  0  0  1  0  0
   -7.7310    4.0530    5.7140 C   0  0  0  0  0  0  0  0  0  2  0  0
   -6.4520    5.6300    6.8680 N   0  0  0  0  0  0  0  0  0  0  0  0
   -6.2260    6.5240    7.8670 N   0  0  0  0  0  0  0  0  0  0  0  0
   -7.1930    6.7500    8.7820 C   0  0  0  0  0  0  0  0  0  0  0  0
   -8.4240    6.1170    8.7580 C   0  0  0  0  0  0  0  0  0  0  0  0
   -9.3950    6.3570    9.7450 N   0  0  0  0  0  0  0  0  0  0  0  0
  -10.5620    5.6840    9.7600 C   0  0  0  0  0  0  0  0  0  0  0  0
  -11.5770    5.6820   10.5960 N   0  0  0  0  0  0  0  0  0  0  0  0
  -12.4690    4.7490   10.1080 N   0  0  0  0  0  0  0  0  0  0  0  0
  -12.0160    4.1880    8.9920 N   0  0  0  0  0  0  0  0  0  0  0  0
  -10.8400    4.7900    8.7610 N   0  0  0  0  0  0  0  0  0  0  0  0
   -9.9950    4.4790    7.6090 C   0  0  0  0  0  0  0  0  0  0  0  0
   -8.6630    5.2070    7.7200 C   0  0  0  0  0  0  0  0  0  0  0  0
  -10.7490    4.8610    6.3730 C   0  0  0  0  0  0  0  0  0  0  0  0
  -11.0350    6.2020    6.1170 C   0  0  0  0  0  0  0  0  0  0  0  0
  -11.7370    6.5580    4.9650 C   0  0  0  0  0  0  0  0  0  0  0  0
  -12.1550    5.5730    4.0710 C   0  0  0  0  0  0  0  0  0  0  0  0
  -11.8700    4.2310    4.3270 C   0  0  0  0  0  0  0  0  0  0  0  0
  -11.1660    3.8760    5.4790 C   0  0  0  0  0  0  0  0  0  0  0  0
  -12.0160    7.8660    4.7150 O   0  0  0  0  0  0  0  0  0  0  0  0
   -6.8990    7.6510    9.7710 O   0  0  0  0  0  0  0  0  0  0  0  0
   -6.7721    3.5817    4.8948 N   0  0  0  0  0  0  0  0  0  0  0  0
   -7.2945    2.8686    3.9051 N   0  0  0  0  0  0  0  0  0  0  0  0
   -6.5529    2.3533    2.7838 C   0  0  0  0  0  0  0  0  0  0  0  0
   -6.9215    1.1166    2.2240 C   0  0  0  0  0  0  0  0  0  0  0  0
   -6.2095    0.5817    1.1480 C   0  0  0  0  0  0  0  0  0  0  0  0
   -5.1223    1.2745    0.6158 C   0  0  0  0  0  0  0  0  0  0  0  0
   -4.7472    2.5065    1.1550 C   0  0  0  0  0  0  0  0  0  0  0  0
   -5.4532    3.0537    2.2342 C   0  0  0  0  0  0  0  0  0  0  0  0
   -4.9658    4.6429    2.8135 Cl  0  0  0  0  0  0  0  0  0  0  0  0
   -8.6263    2.8018    4.0887 C   0  0  0  0  0  0  0  0  0  0  0  0
   -8.9778    3.4957    5.1846 C   0  0  0  0  0  0  0  0  0  0  0  0
  -10.3137    4.1290    5.0008 C   0  0  0  0  0  0  0  0  0  0  0  0
  -10.7226    3.6601    3.5775 C   0  0  0  0  0  0  0  0  0  0  0  0
   -9.6081    2.8555    3.0760 N   0  0  0  0  0  0  0  0  0  0  0  0
  1  3  4  0
  1 14  4  0
  1  2  1  0
  3  4  4  0
  4  5  4  0
  5  6  4  0
  5 22  1  0
  6  7  1  0
  6 14  4  0
  7  8  1  0
  8  9  4  0
  8 12  4  0
  9 10  4  0
 10 11  4  0
 11 12  4  0
 12 13  1  0
 13 14  1  0
 13 15  1  6
 15 16  4  0
 15 20  4  0
 16 17  4  0
 17 18  4  0
 17 21  1  0
 18 19  4  0
 19 20  4  0
 23 24  4  0
 24 25  1  0
 25 26  4  0
 26 27  4  0
 27 28  4  0
 28 29  4  0
 29 30  4  0
 30 31  1  0
 24 32  4  0
 32 33  4  0
 33 34  1  0
 34 35  1  0
 35 36  1  0
 30 25  4  0
 36 32  1  0
  2 23  4  0
  2 33  4  0
M  END
$$$$

     RDKit          3D

 36 42  0  0  0  0  0  0  0  0999 V2000
   -7.6410    4.9930    6.8080 C   0  0  0  0  0  0  0  0  0  1  0  0
   -7.7310    4.0530    5.7140 C   0  0  0  0  0  0  0  0  0  2  0  0
   -6.4520    5.6300    6.8680 N   0  0  0  0  0  0  0  0  0  0  0  0
   -6.2260    6.5240    7.8670 N   0  0  0  0  0  0  0  0  0  0  0  0
   -7.1930    6.7500    8.7820 C   0  0  0  0  0  0  0  0  0  0  0  0
   -8.4240    6.1170    8.7580 C   0  0  0  0  0  0  0  0  0  0  0  0
   -9.3950    6.3570    9.7450 N   0  0  0  0  0  0  0  0  0  0  0  0
  -10.5620    5.6840    9.7600 C   0  0  0  0  0  0  0  0  0  0  0  0
  -11.5770    5.6820   10.5960 N   0  0  0  0  0  0  0  0  0  0  0  0
  -12.4690    4.7490   10.1080 N   0  0  0  0  0  0  0  0  0  0  0  0
  -12.0160    4.1880    8.9920 N   0  0  0  0  0  0  0  0  0  0  0  0
  -10.8400    4.7900    8.7610 N   0  0  0  0  0  0  0  0  0  0  0  0
   -9.9950    4.4790    7.6090 C   0  0  0  0  0  0  0  0  0  0  0  0
   -8.6630    5.2070    7.7200 C   0  0  0  0  0  0  0  0  0  0  0  0
  -10.7490    4.8610    6.3730 C   0  0  0  0  0  0  0  0  0  0  0  0
  -11.0350    6.2020    6.1170 C   0  0  0  0  0  0  0  0  0  0  0  0
  -11.7370    6.5580    4.9650 C   0  0  0  0  0  0  0  0  0  0  0  0
  -12.1550    5.5730    4.0710 C   0  0  0  0  0  0  0  0  0  0  0  0
  -11.8700    4.2310    4.3270 C   0  0  0  0  0  0  0  0  0  0  0  0
  -11.1660    3.8760    5.4790 C   0  0  0  0  0  0  0  0  0  0  0  0
  -12.0160    7.8660    4.7150 O   0  0  0  0  0  0  0  0  0  0  0  0
   -6.8990    7.6510    9.7710 O   0  0  0  0  0  0  0  0  0  0  0  0
   -6.7739    3.5860    4.8903 N   0  0  0  0  0  0  0  0  0  0  0  0
   -7.2947    2.8575    3.9110 N   0  0  0  0  0  0  0  0  0  0  0  0
   -6.5598    2.4515    2.7443 C   0  0  0  0  0  0  0  0  0  0  0  0
   -5.5926    3.3158    2.2035 C   0  0  0  0  0  0  0  0  0  0  0  0
   -4.8742    2.9513    1.0622 C   0  0  0  0  0  0  0  0  0  0  0  0
   -5.1061    1.7166    0.4545 C   0  0  0  0  0  0  0  0  0  0  0  0
   -6.0504    0.8393    0.9921 C   0  0  0  0  0  0  0  0  0  0  0  0
   -6.7765    1.1945    2.1359 C   0  0  0  0  0  0  0  0  0  0  0  0
   -7.8877    0.0119    2.8166 Cl  0  0  0  0  0  0  0  0  0  0  0  0
   -8.6291    2.8116    4.0829 C   0  0  0  0  0  0  0  0  0  0  0  0
   -8.9796    3.5009    5.1830 C   0  0  0  0  0  0  0  0  0  0  0  0
  -10.3072    4.1516    4.9944 C   0  0  0  0  0  0  0  0  0  0  0  0
  -10.7084    3.7074    3.5615 C   0  0  0  0  0  0  0  0  0  0  0  0
   -9.6004    2.8939    3.0614 N   0  0  0  0  0  0  0  0  0  0  0  0
  1  3  4  0
  1 14  4  0
  1  2  1  0
  3  4  4  0
  4  5  4  0
  5  6  4  0
  5 22  1  0
  6  7  1  0
  6 14  4  0
  7  8  1  0
  8  9  4  0
  8 12  4  0
  9 10  4  0
 10 11  4  0
 11 12  4  0
 12 13  1  0
 13 14  1  0
 13 15  1  6
 15 16  4  0
 15 20  4  0
 16 17  4  0
 17 18  4  0
 17 21  1  0
 18 19  4  0
 19 20  4  0
 23 24  4  0
 24 25  1  0
 25 26  4  0
 26 27  4  0
 27 28  4  0
 28 29  4  0
 29 30  4  0
 30 31  1  0
 24 32  4  0
 32 33  4  0
 33 34  1  0
 34 35  1  0
 35 36  1  0
 30 25  4  0
 36 32  1  0
  2 23  4  0
  2 33  4  0
M  END
$$$$

     RDKit          3D

 40 45  0  0  0  0  0  0  0  0999 V2000
   -7.6410    4.9930    6.8080 C   0  0  0  0  0  0  0  0  0  1  0  0
   -7.7310    4.0530    5.7140 C   0  0  0  0  0  0  0  0  0  2  0  0
   -6.4520    5.6300    6.8680 N   0  0  0  0  0  0  0  0  0  0  0  0
   -6.2260    6.5240    7.8670 N   0  0  0  0  0  0  0  0  0  0  0  0
   -7.1930    6.7500    8.7820 C   0  0  0  0  0  0  0  0  0  0  0  0
   -8.4240    6.1170    8.7580 C   0  0  0  0  0  0  0  0  0  0  0  0
   -9.3950    6.3570    9.7450 N   0  0  0  0  0  0  0  0  0  0  0  0
  -10.5620    5.6840    9.7600 C   0  0  0  0  0  0  0  0  0  0  0  0
  -11.5770    5.6820   10.5960 N   0  0  0  0  0  0  0  0  0  0  0  0
  -12.4690    4.7490   10.1080 N   0  0  0  0  0  0  0  0  0  0  0  0
  -12.0160    4.1880    8.9920 N   0  0  0  0  0  0  0  0  0  0  0  0
  -10.8400    4.7900    8.7610 N   0  0  0  0  0  0  0  0  0  0  0  0
   -9.9950    4.4790    7.6090 C   0  0  0  0  0  0  0  0  0  0  0  0
   -8.6630    5.2070    7.7200 C   0  0  0  0  0  0  0  0  0  0  0  0
  -10.7490    4.8610    6.3730 C   0  0  0  0  0  0  0  0  0  0  0  0
  -11.0350    6.2020    6.1170 C   0  0  0  0  0  0  0  0  0  0  0  0
  -11.7370    6.5580    4.9650 C   0  0  0  0  0  0  0  0  0  0  0  0
  -12.1550    5.5730    4.0710 C   0  0  0  0  0  0  0  0  0  0  0  0
  -11.8700    4.2310    4.3270 C   0  0  0  0  0  0  0  0  0  0  0  0
  -11.1660    3.8760    5.4790 C   0  0  0  0  0  0  0  0  0  0  0  0
  -12.0160    7.8660    4.7150 O   0  0  0  0  0  0  0  0  0  0  0  0
   -6.8990    7.6510    9.7710 O   0  0  0  0  0  0  0  0  0  0  0  0
   -6.8499    2.9810    5.4608 C   0  0  0  0  0  0  0  0  0  0  0  0
   -7.1926    2.1234    4.4260 C   0  0  0  0  0  0  0  0  0  0  0  0
   -8.6545    2.6381    3.7809 S   0  0  0  0  0  0  0  0  0  0  0  0
   -8.8745    3.9549    4.8033 C   0  0  0  0  0  0  0  0  0  0  0  0
   -9.9870    4.9116    4.6692 C   0  0  0  0  0  0  0  0  0  0  0  0
   -9.9473    6.0274    5.2546 O   0  0  0  0  0  0  0  0  0  0  0  0
  -11.0713    4.5845    3.8497 O   0  0  0  0  0  0  0  0  0  0  0  0
  -12.1723    5.4631    3.6452 C   0  0  0  0  0  0  0  0  0  0  0  0
  -13.1212    4.8474    2.6656 C   0  0  0  0  0  0  0  0  0  0  0  0
  -12.7126    4.5733    1.5038 O   0  0  0  0  0  0  0  0  0  0  0  0
  -14.4835    4.5854    3.0359 N   0  0  0  0  0  0  0  0  0  0  0  0
  -15.4055    3.8567    2.1590 C   0  0  0  0  0  0  0  0  0  0  0  0
  -15.0928    2.3512    2.2095 C   0  0  0  0  0  0  0  0  0  0  0  0
  -16.0666    1.5505    1.3333 C   0  0  0  0  0  0  0  0  0  0  0  0
  -17.5439    1.8182    1.6920 C   0  0  0  0  0  0  0  0  0  0  0  0
  -17.9510    1.1368    3.0089 C   0  0  0  0  0  0  0  0  0  0  0  0
  -17.8457    3.3317    1.7045 C   0  0  0  0  0  0  0  0  0  0  0  0
  -16.8621    4.1185    2.5823 C   0  0  0  0  0  0  0  0  0  0  0  0
  1  3  4  0
  1 14  4  0
  1  2  1  0
  3  4  4  0
  4  5  4  0
  5  6  4  0
  5 22  1  0
  6  7  1  0
  6 14  4  0
  7  8  1  0
  8  9  4  0
  8 12  4  0
  9 10  4  0
 10 11  4  0
 11 12  4  0
 12 13  1  0
 13 14  1  0
 13 15  1  6
 15 16  4  0
 15 20  4  0
 16 17  4  0
 17 18  4  0
 17 21  1  0
 18 19  4  0
 19 20  4  0
 23 24  4  0
 24 25  4  0
 25 26  4  0
 26 27  1  0
 27 28  2  0
 27 29  1  0
 29 30  1  0
 30 31  1  0
 31 32  2  0
 31 33  1  0
 33 34  1  0
 34 35  1  0
 35 36  1  0
 36 37  1  0
 37 38  1  0
 37 39  1  0
 39 40  1  0
 40 34  1  0
  2 23  4  0
  2 26  4  0
M  END
$$$$

     RDKit          3D

 43 49  0  0  0  0  0  0  0  0999 V2000
   -7.6410    4.9930    6.8080 C   0  0  0  0  0  0  0  0  0  1  0  0
   -7.7310    4.0530    5.7140 C   0  0  0  0  0  0  0  0  0  2  0  0
   -6.4520    5.6300    6.8680 N   0  0  0  0  0  0  0  0  0  0  0  0
   -6.2260    6.5240    7.8670 N   0  0  0  0  0  0  0  0  0  0  0  0
   -7.1930    6.7500    8.7820 C   0  0  0  0  0  0  0  0  0  0  0  0
   -8.4240    6.1170    8.7580 C   0  0  0  0  0  0  0  0  0  0  0  0
   -9.3950    6.3570    9.7450 N   0  0  0  0  0  0  0  0  0  0  0  0
  -10.5620    5.6840    9.7600 C   0  0  0  0  0  0  0  0  0  0  0  0
  -11.5770    5.6820   10.5960 N   0  0  0  0  0  0  0  0  0  0  0  0
  -12.4690    4.7490   10.1080 N   0  0  0  0  0  0  0  0  0  0  0  0
  -12.0160    4.1880    8.9920 N   0  0  0  0  0  0  0  0  0  0  0  0
  -10.8400    4.7900    8.7610 N   0  0  0  0  0  0  0  0  0  0  0  0
   -9.9950    4.4790    7.6090 C   0  0  0  0  0  0  0  0  0  0  0  0
   -8.6630    5.2070    7.7200 C   0  0  0  0  0  0  0  0  0  0  0  0
  -10.7490    4.8610    6.3730 C   0  0  0  0  0  0  0  0  0  0  0  0
  -11.0350    6.2020    6.1170 C   0  0  0  0  0  0  0  0  0  0  0  0
  -11.7370    6.5580    4.9650 C   0  0  0  0  0  0  0  0  0  0  0  0
  -12.1550    5.5730    4.0710 C   0  0  0  0  0  0  0  0  0  0  0  0
  -11.8700    4.2310    4.3270 C   0  0  0  0  0  0  0  0  0  0  0  0
  -11.1660    3.8760    5.4790 C   0  0  0  0  0  0  0  0  0  0  0  0
  -12.0160    7.8660    4.7150 O   0  0  0  0  0  0  0  0  0  0  0  0
   -6.8990    7.6510    9.7710 O   0  0  0  0  0  0  0  0  0  0  0  0
   -6.9875    2.8466    5.7110 C   0  0  0  0  0  0  0  0  0  0  0  0
   -7.1338    1.8655    4.7298 C   0  0  0  0  0  0  0  0  0  0  0  0
   -8.0719    2.0298    3.7120 C   0  0  0  0  0  0  0  0  0  0  0  0
   -8.8607    3.1808    3.6648 C   0  0  0  0  0  0  0  0  0  0  0  0
   -8.7235    4.1860    4.6393 C   0  0  0  0  0  0  0  0  0  0  0  0
   -9.5432    5.4165    4.5166 C   0  0  0  0  0  0  0  0  0  0  0  0
   -9.0585    6.5293    4.8592 O   0  0  0  0  0  0  0  0  0  0  0  0
  -10.8961    5.3378    4.0380 N   0  0  0  0  0  0  0  0  0  0  0  0
  -11.6703    6.4779    3.6286 C   0  0  0  0  0  0  0  0  0  0  0  0
  -13.0571    6.4788    3.8369 C   0  0  0  0  0  0  0  0  0  0  0  0
  -13.8353    7.5654    3.4282 C   0  0  0  0  0  0  0  0  0  0  0  0
  -13.2413    8.6576    2.7781 C   0  0  0  0  0  0  0  0  0  0  0  0
  -14.0530    9.8172    2.3578 C   0  0  0  0  0  0  0  0  0  0  0  0
  -13.6277   10.9783    2.6067 O   0  0  0  0  0  0  0  0  0  0  0  0
  -15.3038    9.6525    1.6643 N   0  0  0  0  0  0  0  0  0  0  0  0
  -16.2670   10.7316    1.5211 C   0  0  0  0  0  0  0  0  0  0  0  0
  -17.2155   10.2981    0.4108 C   0  0  0  0  0  0  0  0  0  0  0  0
  -16.9859    8.8017    0.2217 C   0  0  0  0  0  0  0  0  0  0  0  0
  -15.6176    8.5087    0.8216 C   0  0  0  0  0  0  0  0  0  0  0  0
  -11.8540    8.6599    2.5690 C   0  0  0  0  0  0  0  0  0  0  0  0
  -11.0754    7.5732    2.9780 C   0  0  0  0  0  0  0  0  0  0  0  0
  1  3  4  0
  1 14  4  0
  1  2  1  0
  3  4  4  0
  4  5  4  0
  5  6  4  0
  5 22  1  0
  6  7  1  0
  6 14  4  0
  7  8  1  0
  8  9  4  0
  8 12  4  0
  9 10  4  0
 10 11  4  0
 11 12  4  0
 12 13  1  0
 13 14  1  0
 13 15  1  6
 15 16  4  0
 15 20  4  0
 16 17  4  0
 17 18  4  0
 17 21  1  0
 18 19  4  0
 19 20  4  0
 23 24  4  0
 24 25  4  0
 25 26  4  0
 26 27  4  0
 27 28  1  0
 28 29  2  0
 28 30  1  0
 30 31  1  0
 31 32  4  0
 32 33  4  0
 33 34  4  0
 34 35  1  0
 35 36  2  0
 35 37  1  0
 37 38  1  0
 38 39  1  0
 39 40  1  0
 40 41  1  0
 34 42  4  0
 42 43  4  0
 43 31  4  0
 41 37  1  0
  2 23  4  0
  2 27  4  0
M  END
$$$$

     RDKit          3D

 29 33  0  0  0  0  0  0  0  0999 V2000
   -7.6410    4.9930    6.8080 C   0  0  0  0  0  0  0  0  0  1  0  0
   -7.7310    4.0530    5.7140 C   0  0  0  0  0  0  0  0  0  2  0  0
   -6.4520    5.6300    6.8680 N   0  0  0  0  0  0  0  0  0  0  0  0
   -6.2260    6.5240    7.8670 N   0  0  0  0  0  0  0  0  0  0  0  0
   -7.1930    6.7500    8.7820 C   0  0  0  0  0  0  0  0  0  0  0  0
   -8.4240    6.1170    8.7580 C   0  0  0  0  0  0  0  0  0  0  0  0
   -9.3950    6.3570    9.7450 N   0  0  0  0  0  0  0  0  0  0  0  0
  -10.5620    5.6840    9.7600 C   0  0  0  0  0  0  0  0  0  0  0  0
  -11.5770    5.6820   10.5960 N   0  0  0  0  0  0  0  0  0  0  0  0
  -12.4690    4.7490   10.1080 N   0  0  0  0  0  0  0  0  0  0  0  0
  -12.0160    4.1880    8.9920 N   0  0  0  0  0  0  0  0  0  0  0  0
  -10.8400    4.7900    8.7610 N   0  0  0  0  0  0  0  0  0  0  0  0
   -9.9950    4.4790    7.6090 C   0  0  0  0  0  0  0  0  0  0  0  0
   -8.6630    5.2070    7.7200 C   0  0  0  0  0  0  0  0  0  0  0  0
  -10.7490    4.8610    6.3730 C   0  0  0  0  0  0  0  0  0  0  0  0
  -11.0350    6.2020    6.1170 C   0  0  0  0  0  0  0  0  0  0  0  0
  -11.7370    6.5580    4.9650 C   0  0  0  0  0  0  0  0  0  0  0  0
  -12.1550    5.5730    4.0710 C   0  0  0  0  0  0  0  0  0  0  0  0
  -11.8700    4.2310    4.3270 C   0  0  0  0  0  0  0  0  0  0  0  0
  -11.1660    3.8760    5.4790 C   0  0  0  0  0  0  0  0  0  0  0  0
  -12.0160    7.8660    4.7150 O   0  0  0  0  0  0  0  0  0  0  0  0
   -6.8990    7.6510    9.7710 O   0  0  0  0  0  0  0  0  0  0  0  0
   -7.0396    2.8130    5.5968 C   0  0  0  0  0  0  0  0  0  0  0  0
   -5.7774    2.4490    6.7706 Cl  0  0  0  0  0  0  0  0  0  0  0  0
   -7.2840    1.8841    4.5792 C   0  0  0  0  0  0  0  0  0  0  0  0
   -8.3050    2.1038    3.6542 C   0  0  0  0  0  0  0  0  0  0  0  0
   -9.0931    3.2516    3.7419 C   0  0  0  0  0  0  0  0  0  0  0  0
   -8.8630    4.1913    4.7528 C   0  0  0  0  0  0  0  0  0  0  0  0
   -9.8684    5.6368    4.7956 Cl  0  0  0  0  0  0  0  0  0  0  0  0
  1  3  4  0
  1 14  4  0
  1  2  1  0
  3  4  4  0
  4  5  4  0
  5  6  4  0
  5 22  1  0
  6  7  1  0
  6 14  4  0
  7  8  1  0
  8  9  4  0
  8 12  4  0
  9 10  4  0
 10 11  4  0
 11 12  4  0
 12 13  1  0
 13 14  1  0
 13 15  1  6
 15 16  4  0
 15 20  4  0
 16 17  4  0
 17 18  4  0
 17 21  1  0
 18 19  4  0
 19 20  4  0
 23 24  1  0
 23 25  4  0
 25 26  4  0
 26 27  4  0
 27 28  4  0
 28 29  1  0
  2 23  4  0
  2 28  4  0
M  END
$$$$

     RDKit          3D

 29 33  0  0  0  0  0  0  0  0999 V2000
   -7.6410    4.9930    6.8080 C   0  0  0  0  0  0  0  0  0  1  0  0
   -7.7310    4.0530    5.7140 C   0  0  0  0  0  0  0  0  0  2  0  0
   -6.4520    5.6300    6.8680 N   0  0  0  0  0  0  0  0  0  0  0  0
   -6.2260    6.5240    7.8670 N   0  0  0  0  0  0  0  0  0  0  0  0
   -7.1930    6.7500    8.7820 C   0  0  0  0  0  0  0  0  0  0  0  0
   -8.4240    6.1170    8.7580 C   0  0  0  0  0  0  0  0  0  0  0  0
   -9.3950    6.3570    9.7450 N   0  0  0  0  0  0  0  0  0  0  0  0
  -10.5620    5.6840    9.7600 C   0  0  0  0  0  0  0  0  0  0  0  0
  -11.5770    5.6820   10.5960 N   0  0  0  0  0  0  0  0  0  0  0  0
  -12.4690    4.7490   10.1080 N   0  0  0  0  0  0  0  0  0  0  0  0
  -12.0160    4.1880    8.9920 N   0  0  0  0  0  0  0  0  0  0  0  0
  -10.8400    4.7900    8.7610 N   0  0  0  0  0  0  0  0  0  0  0  0
   -9.9950    4.4790    7.6090 C   0  0  0  0  0  0  0  0  0  0  0  0
   -8.6630    5.2070    7.7200 C   0  0  0  0  0  0  0  0  0  0  0  0
  -10.7490    4.8610    6.3730 C   0  0  0  0  0  0  0  0  0  0  0  0
  -11.0350    6.2020    6.1170 C   0  0  0  0  0  0  0  0  0  0  0  0
  -11.7370    6.5580    4.9650 C   0  0  0  0  0  0  0  0  0  0  0  0
  -12.1550    5.5730    4.0710 C   0  0  0  0  0  0  0  0  0  0  0  0
  -11.8700    4.2310    4.3270 C   0  0  0  0  0  0  0  0  0  0  0  0
  -11.1660    3.8760    5.4790 C   0  0  0  0  0  0  0  0  0  0  0  0
  -12.0160    7.8660    4.7150 O   0  0  0  0  0  0  0  0  0  0  0  0
   -6.8990    7.6510    9.7710 O   0  0  0  0  0  0  0  0  0  0  0  0
   -9.0132    4.0386    4.9281 C   0  0  0  0  0  0  0  0  0  0  0  0
  -10.2245    5.2927    5.1824 Cl  0  0  0  0  0  0  0  0  0  0  0  0
   -9.2422    3.1026    3.9137 C   0  0  0  0  0  0  0  0  0  0  0  0
   -8.3021    2.1086    3.6458 C   0  0  0  0  0  0  0  0  0  0  0  0
   -7.1274    2.0383    4.3936 C   0  0  0  0  0  0  0  0  0  0  0  0
   -6.8793    2.9647    5.4128 C   0  0  0  0  0  0  0  0  0  0  0  0
   -5.4136    2.7571    6.3682 Cl  0  0  0  0  0  0  0  0  0  0  0  0
  1  3  4  0
  1 14  4  0
  1  2  1  0
  3  4  4  0
  4  5  4  0
  5  6  4  0
  5 22  1  0
  6  7  1  0
  6 14  4  0
  7  8  1  0
  8  9  4  0
  8 12  4  0
  9 10  4  0
 10 11  4  0
 11 12  4  0
 12 13  1  0
 13 14  1  0
 13 15  1  6
 15 16  4  0
 15 20  4  0
 16 17  4  0
 17 18  4  0
 17 21  1  0
 18 19  4  0
 19 20  4  0
 23 24  1  0
 23 25  4  0
 25 26  4  0
 26 27  4  0
 27 28  4  0
 28 29  1  0
  2 23  4  0
  2 28  4  0
M  END
$$$$

     RDKit          3D

 29 33  0  0  0  0  0  0  0  0999 V2000
   -7.6410    4.9930    6.8080 C   0  0  0  0  0  0  0  0  0  1  0  0
   -7.7310    4.0530    5.7140 C   0  0  0  0  0  0  0  0  0  2  0  0
   -6.4520    5.6300    6.8680 N   0  0  0  0  0  0  0  0  0  0  0  0
   -6.2260    6.5240    7.8670 N   0  0  0  0  0  0  0  0  0  0  0  0
   -7.1930    6.7500    8.7820 C   0  0  0  0  0  0  0  0  0  0  0  0
   -8.4240    6.1170    8.7580 C   0  0  0  0  0  0  0  0  0  0  0  0
   -9.3950    6.3570    9.7450 N   0  0  0  0  0  0  0  0  0  0  0  0
  -10.5620    5.6840    9.7600 C   0  0  0  0  0  0  0  0  0  0  0  0
  -11.5770    5.6820   10.5960 N   0  0  0  0  0  0  0  0  0  0  0  0
  -12.4690    4.7490   10.1080 N   0  0  0  0  0  0  0  0  0  0  0  0
  -12.0160    4.1880    8.9920 N   0  0  0  0  0  0  0  0  0  0  0  0
  -10.8400    4.7900    8.7610 N   0  0  0  0  0  0  0  0  0  0  0  0
   -9.9950    4.4790    7.6090 C   0  0  0  0  0  0  0  0  0  0  0  0
   -8.6630    5.2070    7.7200 C   0  0  0  0  0  0  0  0  0  0  0  0
  -10.7490    4.8610    6.3730 C   0  0  0  0  0  0  0  0  0  0  0  0
  -11.0350    6.2020    6.1170 C   0  0  0  0  0  0  0  0  0  0  0  0
  -11.7370    6.5580    4.9650 C   0  0  0  0  0  0  0  0  0  0  0  0
  -12.1550    5.5730    4.0710 C   0  0  0  0  0  0  0  0  0  0  0  0
  -11.8700    4.2310    4.3270 C   0  0  0  0  0  0  0  0  0  0  0  0
  -11.1660    3.8760    5.4790 C   0  0  0  0  0  0  0  0  0  0  0  0
  -12.0160    7.8660    4.7150 O   0  0  0  0  0  0  0  0  0  0  0  0
   -6.8990    7.6510    9.7710 O   0  0  0  0  0  0  0  0  0  0  0  0
   -6.9298    2.8943    5.6489 C   0  0  0  0  0  0  0  0  0  0  0  0
   -7.0761    1.9125    4.6731 C   0  0  0  0  0  0  0  0  0  0  0  0
   -8.0933    2.0115    3.7277 C   0  0  0  0  0  0  0  0  0  0  0  0
   -8.9743    3.1048    3.7356 C   0  0  0  0  0  0  0  0  0  0  0  0
  -10.0579    3.1672    2.6897 C   0  0  0  0  0  0  0  0  0  0  0  0
   -8.8025    4.1382    4.6949 C   0  0  0  0  0  0  0  0  0  0  0  0
   -9.7010    5.3567    4.6684 C   0  0  0  0  0  0  0  0  0  0  0  0
  1  3  4  0
  1 14  4  0
  1  2  1  0
  3  4  4  0
  4  5  4  0
  5  6  4  0
  5 22  1  0
  6  7  1  0
  6 14  4  0
  7  8  1  0
  8  9  4  0
  8 12  4  0
  9 10  4  0
 10 11  4  0
 11 12  4  0
 12 13  1  0
 13 14  1  0
 13 15  1  6
 15 16  4  0
 15 20  4  0
 16 17  4  0
 17 18  4  0
 17 21  1  0
 18 19  4  0
 19 20  4  0
 23 24  4  0
 24 25  4  0
 25 26  4  0
 26 27  1  0
 26 28  4  0
 28 29  1  0
  2 23  4  0
  2 28  4  0
M  END
$$$$

     RDKit          3D

 29 33  0  0  0  0  0  0  0  0999 V2000
   -7.6410    4.9930    6.8080 C   0  0  0  0  0  0  0  0  0  1  0  0
   -7.7310    4.0530    5.7140 C   0  0  0  0  0  0  0  0  0  2  0  0
   -6.4520    5.6300    6.8680 N   0  0  0  0  0  0  0  0  0  0  0  0
   -6.2260    6.5240    7.8670 N   0  0  0  0  0  0  0  0  0  0  0  0
   -7.1930    6.7500    8.7820 C   0  0  0  0  0  0  0  0  0  0  0  0
   -8.4240    6.1170    8.7580 C   0  0  0  0  0  0  0  0  0  0  0  0
   -9.3950    6.3570    9.7450 N   0  0  0  0  0  0  0  0  0  0  0  0
  -10.5620    5.6840    9.7600 C   0  0  0  0  0  0  0  0  0  0  0  0
  -11.5770    5.6820   10.5960 N   0  0  0  0  0  0  0  0  0  0  0  0
  -12.4690    4.7490   10.1080 N   0  0  0  0  0  0  0  0  0  0  0  0
  -12.0160    4.1880    8.9920 N   0  0  0  0  0  0  0  0  0  0  0  0
  -10.8400    4.7900    8.7610 N   0  0  0  0  0  0  0  0  0  0  0  0
   -9.9950    4.4790    7.6090 C   0  0  0  0  0  0  0  0  0  0  0  0
   -8.6630    5.2070    7.7200 C   0  0  0  0  0  0  0  0  0  0  0  0
  -10.7490    4.8610    6.3730 C   0  0  0  0  0  0  0  0  0  0  0  0
  -11.0350    6.2020    6.1170 C   0  0  0  0  0  0  0  0  0  0  0  0
  -11.7370    6.5580    4.9650 C   0  0  0  0  0  0  0  0  0  0  0  0
  -12.1550    5.5730    4.0710 C   0  0  0  0  0  0  0  0  0  0  0  0
  -11.8700    4.2310    4.3270 C   0  0  0  0  0  0  0  0  0  0  0  0
  -11.1660    3.8760    5.4790 C   0  0  0  0  0  0  0  0  0  0  0  0
  -12.0160    7.8660    4.7150 O   0  0  0  0  0  0  0  0  0  0  0  0
   -6.8990    7.6510    9.7710 O   0  0  0  0  0  0  0  0  0  0  0  0
   -6.7474    3.0973    5.4368 C   0  0  0  0  0  0  0  0  0  0  0  0
   -6.8723    2.1294    4.4396 C   0  0  0  0  0  0  0  0  0  0  0  0
   -8.0445    2.0458    3.6798 C   0  0  0  0  0  0  0  0  0  0  0  0
   -8.1719    1.0244    2.5876 C   0  0  0  0  0  0  0  0  0  0  0  0
   -9.0743    2.9710    3.8975 C   0  0  0  0  0  0  0  0  0  0  0  0
   -8.9552    3.9656    4.8848 C   0  0  0  0  0  0  0  0  0  0  0  0
  -10.0785    4.9574    5.0461 C   0  0  0  0  0  0  0  0  0  0  0  0
  1  3  4  0
  1 14  4  0
  1  2  1  0
  3  4  4  0
  4  5  4  0
  5  6  4  0
  5 22  1  0
  6  7  1  0
  6 14  4  0
  7  8  1  0
  8  9  4  0
  8 12  4  0
  9 10  4  0
 10 11  4  0
 11 12  4  0
 12 13  1  0
 13 14  1  0
 13 15  1  6
 15 16  4  0
 15 20  4  0
 16 17  4  0
 17 18  4  0
 17 21  1  0
 18 19  4  0
 19 20  4  0
 23 24  4  0
 24 25  4  0
 25 26  1  0
 25 27  4  0
 27 28  4  0
 28 29  1  0
  2 23  4  0
  2 28  4  0
M  END
$$$$

     RDKit          3D

 33 38  0  0  0  0  0  0  0  0999 V2000
   -7.6410    4.9930    6.8080 C   0  0  0  0  0  0  0  0  0  1  0  0
   -7.7310    4.0530    5.7140 C   0  0  0  0  0  0  0  0  0  2  0  0
   -6.4520    5.6300    6.8680 N   0  0  0  0  0  0  0  0  0  0  0  0
   -6.2260    6.5240    7.8670 N   0  0  0  0  0  0  0  0  0  0  0  0
   -7.1930    6.7500    8.7820 C   0  0  0  0  0  0  0  0  0  0  0  0
   -8.4240    6.1170    8.7580 C   0  0  0  0  0  0  0  0  0  0  0  0
   -9.3950    6.3570    9.7450 N   0  0  0  0  0  0  0  0  0  0  0  0
  -10.5620    5.6840    9.7600 C   0  0  0  0  0  0  0  0  0  0  0  0
  -11.5770    5.6820   10.5960 N   0  0  0  0  0  0  0  0  0  0  0  0
  -12.4690    4.7490   10.1080 N   0  0  0  0  0  0  0  0  0  0  0  0
  -12.0160    4.1880    8.9920 N   0  0  0  0  0  0  0  0  0  0  0  0
  -10.8400    4.7900    8.7610 N   0  0  0  0  0  0  0  0  0  0  0  0
   -9.9950    4.4790    7.6090 C   0  0  0  0  0  0  0  0  0  0  0  0
   -8.6630    5.2070    7.7200 C   0  0  0  0  0  0  0  0  0  0  0  0
  -10.7490    4.8610    6.3730 C   0  0  0  0  0  0  0  0  0  0  0  0
  -11.0350    6.2020    6.1170 C   0  0  0  0  0  0  0  0  0  0  0  0
  -11.7370    6.5580    4.9650 C   0  0  0  0  0  0  0  0  0  0  0  0
  -12.1550    5.5730    4.0710 C   0  0  0  0  0  0  0  0  0  0  0  0
  -11.8700    4.2310    4.3270 C   0  0  0  0  0  0  0  0  0  0  0  0
  -11.1660    3.8760    5.4790 C   0  0  0  0  0  0  0  0  0  0  0  0
  -12.0160    7.8660    4.7150 O   0  0  0  0  0  0  0  0  0  0  0  0
   -6.8990    7.6510    9.7710 O   0  0  0  0  0  0  0  0  0  0  0  0
   -6.8330    3.0907    5.3834 N   0  0  0  0  0  0  0  0  0  0  0  0
   -7.3555    2.4329    4.3296 C   0  0  0  0  0  0  0  0  0  0  0  0
   -6.7388    1.3937    3.6356 C   0  0  0  0  0  0  0  0  0  0  0  0
   -7.4195    0.8482    2.5360 C   0  0  0  0  0  0  0  0  0  0  0  0
   -8.6783    1.3522    2.1585 C   0  0  0  0  0  0  0  0  0  0  0  0
   -9.2507    2.4016    2.8919 C   0  0  0  0  0  0  0  0  0  0  0  0
   -8.5633    2.8928    3.9581 N   0  0  0  0  0  0  0  0  0  0  0  0
   -8.8608    3.8912    4.8102 C   0  0  0  0  0  0  0  0  0  0  0  0
  -10.0320    4.8236    4.6597 C   0  0  0  0  0  0  0  0  0  0  0  0
   -9.7694    5.7790    3.5802 C   0  0  0  0  0  0  0  0  0  0  0  0
   -9.5616    6.5333    2.7275 N   0  0  0  0  0  0  0  0  0  0  0  0
  1  3  4  0
  1 14  4  0
  1  2  1  0
  3  4  4  0
  4  5  4  0
  5  6  4  0
  5 22  1  0
  6  7  1  0
  6 14  4  0
  7  8  1  0
  8  9  4  0
  8 12  4  0
  9 10  4  0
 10 11  4  0
 11 12  4  0
 12 13  1  0
 13 14  1  0
 13 15  1  6
 15 16  4  0
 15 20  4  0
 16 17  4  0
 17 18  4  0
 17 21  1  0
 18 19  4  0
 19 20  4  0
 23 24  4  0
 24 25  4  0
 25 26  4  0
 26 27  4  0
 27 28  4  0
 28 29  4  0
 29 30  4  0
 30 31  1  0
 31 32  1  0
 32 33  3  0
 29 24  4  0
  2 23  4  0
  2 30  4  0
M  END
$$$$

     RDKit          3D

 37 43  0  0  0  0  0  0  0  0999 V2000
   -7.6410    4.9930    6.8080 C   0  0  0  0  0  0  0  0  0  1  0  0
   -7.7310    4.0530    5.7140 C   0  0  0  0  0  0  0  0  0  2  0  0
   -6.4520    5.6300    6.8680 N   0  0  0  0  0  0  0  0  0  0  0  0
   -6.2260    6.5240    7.8670 N   0  0  0  0  0  0  0  0  0  0  0  0
   -7.1930    6.7500    8.7820 C   0  0  0  0  0  0  0  0  0  0  0  0
   -8.4240    6.1170    8.7580 C   0  0  0  0  0  0  0  0  0  0  0  0
   -9.3950    6.3570    9.7450 N   0  0  0  0  0  0  0  0  0  0  0  0
  -10.5620    5.6840    9.7600 C   0  0  0  0  0  0  0  0  0  0  0  0
  -11.5770    5.6820   10.5960 N   0  0  0  0  0  0  0  0  0  0  0  0
  -12.4690    4.7490   10.1080 N   0  0  0  0  0  0  0  0  0  0  0  0
  -12.0160    4.1880    8.9920 N   0  0  0  0  0  0  0  0  0  0  0  0
  -10.8400    4.7900    8.7610 N   0  0  0  0  0  0  0  0  0  0  0  0
   -9.9950    4.4790    7.6090 C   0  0  0  0  0  0  0  0  0  0  0  0
   -8.6630    5.2070    7.7200 C   0  0  0  0  0  0  0  0  0  0  0  0
  -10.7490    4.8610    6.3730 C   0  0  0  0  0  0  0  0  0  0  0  0
  -11.0350    6.2020    6.1170 C   0  0  0  0  0  0  0  0  0  0  0  0
  -11.7370    6.5580    4.9650 C   0  0  0  0  0  0  0  0  0  0  0  0
  -12.1550    5.5730    4.0710 C   0  0  0  0  0  0  0  0  0  0  0  0
  -11.8700    4.2310    4.3270 C   0  0  0  0  0  0  0  0  0  0  0  0
  -11.1660    3.8760    5.4790 C   0  0  0  0  0  0  0  0  0  0  0  0
  -12.0160    7.8660    4.7150 O   0  0  0  0  0  0  0  0  0  0  0  0
   -6.8990    7.6510    9.7710 O   0  0  0  0  0  0  0  0  0  0  0  0
   -6.7622    3.0916    5.3639 C   0  0  0  0  0  0  0  0  0  0  0  0
   -6.9816    2.1394    4.3518 C   0  0  0  0  0  0  0  0  0  0  0  0
   -8.1673    2.1055    3.6803 N   0  0  0  0  0  0  0  0  0  0  0  0
   -9.1216    3.0167    3.9894 C   0  0  0  0  0  0  0  0  0  0  0  0
  -10.3874    3.1511    3.4591 C   0  0  0  0  0  0  0  0  0  0  0  0
  -11.0734    2.3221    2.4502 C   0  0  0  0  0  0  0  0  0  0  0  0
  -12.3253    2.1939    2.5197 O   0  0  0  0  0  0  0  0  0  0  0  0
  -10.3468    1.6422    1.3641 C   0  0  0  0  0  0  0  0  0  0  0  0
  -10.7753    0.4972    0.7024 C   0  0  0  0  0  0  0  0  0  0  0  0
   -9.9141    0.0957   -0.3260 C   0  0  0  0  0  0  0  0  0  0  0  0
   -8.8130    0.9255   -0.4882 C   0  0  0  0  0  0  0  0  0  0  0  0
   -8.9156    2.1632    0.6438 S   0  0  0  0  0  0  0  0  0  0  0  0
  -10.9404    4.1889    4.2033 C   0  0  0  0  0  0  0  0  0  0  0  0
  -10.0385    4.6466    5.1047 N   0  0  0  0  0  0  0  0  0  0  0  0
   -8.9442    3.9162    4.9652 N   0  0  0  0  0  0  0  0  0  0  0  0
  1  3  4  0
  1 14  4  0
  1  2  1  0
  3  4  4  0
  4  5  4  0
  5  6  4  0
  5 22  1  0
  6  7  1  0
  6 14  4  0
  7  8  1  0
  8  9  4  0
  8 12  4  0
  9 10  4  0
 10 11  4  0
 11 12  4  0
 12 13  1  0
 13 14  1  0
 13 15  1  6
 15 16  4  0
 15 20  4  0
 16 17  4  0
 17 18  4  0
 17 21  1  0
 18 19  4  0
 19 20  4  0
 23 24  4  0
 24 25  4  0
 25 26  4  0
 26 27  4  0
 27 28  1  0
 28 29  2  0
 28 30  1  0
 30 31  4  0
 31 32  4  0
 32 33  4  0
 33 34  4  0
 27 35  4  0
 35 36  4  0
 36 37  4  0
 37 26  4  0
 34 30  4  0
  2 23  4  0
  2 37  4  0
M  END
$$$$

     RDKit          3D

 37 43  0  0  0  0  0  0  0  0999 V2000
   -7.6410    4.9930    6.8080 C   0  0  0  0  0  0  0  0  0  1  0  0
   -7.7310    4.0530    5.7140 C   0  0  0  0  0  0  0  0  0  2  0  0
   -6.4520    5.6300    6.8680 N   0  0  0  0  0  0  0  0  0  0  0  0
   -6.2260    6.5240    7.8670 N   0  0  0  0  0  0  0  0  0  0  0  0
   -7.1930    6.7500    8.7820 C   0  0  0  0  0  0  0  0  0  0  0  0
   -8.4240    6.1170    8.7580 C   0  0  0  0  0  0  0  0  0  0  0  0
   -9.3950    6.3570    9.7450 N   0  0  0  0  0  0  0  0  0  0  0  0
  -10.5620    5.6840    9.7600 C   0  0  0  0  0  0  0  0  0  0  0  0
  -11.5770    5.6820   10.5960 N   0  0  0  0  0  0  0  0  0  0  0  0
  -12.4690    4.7490   10.1080 N   0  0  0  0  0  0  0  0  0  0  0  0
  -12.0160    4.1880    8.9920 N   0  0  0  0  0  0  0  0  0  0  0  0
  -10.8400    4.7900    8.7610 N   0  0  0  0  0  0  0  0  0  0  0  0
   -9.9950    4.4790    7.6090 C   0  0  0  0  0  0  0  0  0  0  0  0
   -8.6630    5.2070    7.7200 C   0  0  0  0  0  0  0  0  0  0  0  0
  -10.7490    4.8610    6.3730 C   0  0  0  0  0  0  0  0  0  0  0  0
  -11.0350    6.2020    6.1170 C   0  0  0  0  0  0  0  0  0  0  0  0
  -11.7370    6.5580    4.9650 C   0  0  0  0  0  0  0  0  0  0  0  0
  -12.1550    5.5730    4.0710 C   0  0  0  0  0  0  0  0  0  0  0  0
  -11.8700    4.2310    4.3270 C   0  0  0  0  0  0  0  0  0  0  0  0
  -11.1660    3.8760    5.4790 C   0  0  0  0  0  0  0  0  0  0  0  0
  -12.0160    7.8660    4.7150 O   0  0  0  0  0  0  0  0  0  0  0  0
   -6.8990    7.6510    9.7710 O   0  0  0  0  0  0  0  0  0  0  0  0
   -6.8534    2.9696    5.4900 C   0  0  0  0  0  0  0  0  0  0  0  0
   -7.0765    2.0351    4.4601 C   0  0  0  0  0  0  0  0  0  0  0  0
   -8.1736    2.1390    3.6571 N   0  0  0  0  0  0  0  0  0  0  0  0
   -9.0457    3.1543    3.8737 C   0  0  0  0  0  0  0  0  0  0  0  0
  -10.1663    3.4876    3.1491 C   0  0  0  0  0  0  0  0  0  0  0  0
  -10.7405    2.7773    1.9910 C   0  0  0  0  0  0  0  0  0  0  0  0
  -10.5690    1.5330    1.8914 O   0  0  0  0  0  0  0  0  0  0  0  0
  -11.4908    3.4800    0.9343 C   0  0  0  0  0  0  0  0  0  0  0  0
  -11.4234    4.8358    0.6218 C   0  0  0  0  0  0  0  0  0  0  0  0
  -12.1931    5.1864   -0.4921 C   0  0  0  0  0  0  0  0  0  0  0  0
  -12.8652    4.1157   -1.0667 C   0  0  0  0  0  0  0  0  0  0  0  0
  -12.4910    2.7306   -0.1935 S   0  0  0  0  0  0  0  0  0  0  0  0
  -10.6326    4.6404    3.7822 C   0  0  0  0  0  0  0  0  0  0  0  0
   -9.8134    4.9654    4.8128 N   0  0  0  0  0  0  0  0  0  0  0  0
   -8.8586    4.0487    4.8511 N   0  0  0  0  0  0  0  0  0  0  0  0
  1  3  4  0
  1 14  4  0
  1  2  1  0
  3  4  4  0
  4  5  4  0
  5  6  4  0
  5 22  1  0
  6  7  1  0
  6 14  4  0
  7  8  1  0
  8  9  4  0
  8 12  4  0
  9 10  4  0
 10 11  4  0
 11 12  4  0
 12 13  1  0
 13 14  1  0
 13 15  1  6
 15 16  4  0
 15 20  4  0
 16 17  4  0
 17 18  4  0
 17 21  1  0
 18 19  4  0
 19 20  4  0
 23 24  4  0
 24 25  4  0
 25 26  4  0
 26 27  4  0
 27 28  1  0
 28 29  2  0
 28 30  1  0
 30 31  4  0
 31 32  4  0
 32 33  4  0
 33 34  4  0
 27 35  4  0
 35 36  4  0
 36 37  4  0
 37 26  4  0
 34 30  4  0
  2 23  4  0
  2 37  4  0
M  END
$$$$

     RDKit          3D

 37 43  0  0  0  0  0  0  0  0999 V2000
   -7.6410    4.9930    6.8080 C   0  0  0  0  0  0  0  0  0  1  0  0
   -7.7310    4.0530    5.7140 C   0  0  0  0  0  0  0  0  0  2  0  0
   -6.4520    5.6300    6.8680 N   0  0  0  0  0  0  0  0  0  0  0  0
   -6.2260    6.5240    7.8670 N   0  0  0  0  0  0  0  0  0  0  0  0
   -7.1930    6.7500    8.7820 C   0  0  0  0  0  0  0  0  0  0  0  0
   -8.4240    6.1170    8.7580 C   0  0  0  0  0  0  0  0  0  0  0  0
   -9.3950    6.3570    9.7450 N   0  0  0  0  0  0  0  0  0  0  0  0
  -10.5620    5.6840    9.7600 C   0  0  0  0  0  0  0  0  0  0  0  0
  -11.5770    5.6820   10.5960 N   0  0  0  0  0  0  0  0  0  0  0  0
  -12.4690    4.7490   10.1080 N   0  0  0  0  0  0  0  0  0  0  0  0
  -12.0160    4.1880    8.9920 N   0  0  0  0  0  0  0  0  0  0  0  0
  -10.8400    4.7900    8.7610 N   0  0  0  0  0  0  0  0  0  0  0  0
   -9.9950    4.4790    7.6090 C   0  0  0  0  0  0  0  0  0  0  0  0
   -8.6630    5.2070    7.7200 C   0  0  0  0  0  0  0  0  0  0  0  0
  -10.7490    4.8610    6.3730 C   0  0  0  0  0  0  0  0  0  0  0  0
  -11.0350    6.2020    6.1170 C   0  0  0  0  0  0  0  0  0  0  0  0
  -11.7370    6.5580    4.9650 C   0  0  0  0  0  0  0  0  0  0  0  0
  -12.1550    5.5730    4.0710 C   0  0  0  0  0  0  0  0  0  0  0  0
  -11.8700    4.2310    4.3270 C   0  0  0  0  0  0  0  0  0  0  0  0
  -11.1660    3.8760    5.4790 C   0  0  0  0  0  0  0  0  0  0  0  0
  -12.0160    7.8660    4.7150 O   0  0  0  0  0  0  0  0  0  0  0  0
   -6.8990    7.6510    9.7710 O   0  0  0  0  0  0  0  0  0  0  0  0
   -6.7639    3.0928    5.3576 C   0  0  0  0  0  0  0  0  0  0  0  0
   -6.9668    2.1823    4.3038 C   0  0  0  0  0  0  0  0  0  0  0  0
   -8.1404    2.1766    3.6106 N   0  0  0  0  0  0  0  0  0  0  0  0
   -9.1137    3.0505    3.9655 C   0  0  0  0  0  0  0  0  0  0  0  0
  -10.3399    3.2588    3.3718 C   0  0  0  0  0  0  0  0  0  0  0  0
  -10.9431    2.5829    2.2084 C   0  0  0  0  0  0  0  0  0  0  0  0
  -11.7192    3.2368    1.4616 O   0  0  0  0  0  0  0  0  0  0  0  0
  -10.6810    1.1667    1.8966 C   0  0  0  0  0  0  0  0  0  0  0  0
  -10.3093    0.1705    2.7947 C   0  0  0  0  0  0  0  0  0  0  0  0
  -10.1931   -1.0932    2.2034 C   0  0  0  0  0  0  0  0  0  0  0  0
  -10.4862   -1.1040    0.8462 C   0  0  0  0  0  0  0  0  0  0  0  0
  -10.8942    0.4601    0.3845 S   0  0  0  0  0  0  0  0  0  0  0  0
  -10.8554    4.3506    4.0647 C   0  0  0  0  0  0  0  0  0  0  0  0
   -9.9841    4.7448    5.0241 N   0  0  0  0  0  0  0  0  0  0  0  0
   -8.9370    3.9380    4.9525 N   0  0  0  0  0  0  0  0  0  0  0  0
  1  3  4  0
  1 14  4  0
  1  2  1  0
  3  4  4  0
  4  5  4  0
  5  6  4  0
  5 22  1  0
  6  7  1  0
  6 14  4  0
  7  8  1  0
  8  9  4  0
  8 12  4  0
  9 10  4  0
 10 11  4  0
 11 12  4  0
 12 13  1  0
 13 14  1  0
 13 15  1  6
 15 16  4  0
 15 20  4  0
 16 17  4  0
 17 18  4  0
 17 21  1  0
 18 19  4  0
 19 20  4  0
 23 24  4  0
 24 25  4  0
 25 26  4  0
 26 27  4  0
 27 28  1  0
 28 29  2  0
 28 30  1  0
 30 31  4  0
 31 32  4  0
 32 33  4  0
 33 34  4  0
 27 35  4  0
 35 36  4  0
 36 37  4  0
 37 26  4  0
 34 30  4  0
  2 23  4  0
  2 37  4  0
M  END
$$$$

     RDKit          3D

 44 51  0  0  0  0  0  0  0  0999 V2000
   -7.6410    4.9930    6.8080 C   0  0  0  0  0  0  0  0  0  1  0  0
   -7.7310    4.0530    5.7140 C   0  0  0  0  0  0  0  0  0  2  0  0
   -6.4520    5.6300    6.8680 N   0  0  0  0  0  0  0  0  0  0  0  0
   -6.2260    6.5240    7.8670 N   0  0  0  0  0  0  0  0  0  0  0  0
   -7.1930    6.7500    8.7820 C   0  0  0  0  0  0  0  0  0  0  0  0
   -8.4240    6.1170    8.7580 C   0  0  0  0  0  0  0  0  0  0  0  0
   -9.3950    6.3570    9.7450 N   0  0  0  0  0  0  0  0  0  0  0  0
  -10.5620    5.6840    9.7600 C   0  0  0  0  0  0  0  0  0  0  0  0
  -11.5770    5.6820   10.5960 N   0  0  0  0  0  0  0  0  0  0  0  0
  -12.4690    4.7490   10.1080 N   0  0  0  0  0  0  0  0  0  0  0  0
  -12.0160    4.1880    8.9920 N   0  0  0  0  0  0  0  0  0  0  0  0
  -10.8400    4.7900    8.7610 N   0  0  0  0  0  0  0  0  0  0  0  0
   -9.9950    4.4790    7.6090 C   0  0  0  0  0  0  0  0  0  0  0  0
   -8.6630    5.2070    7.7200 C   0  0  0  0  0  0  0  0  0  0  0  0
  -10.7490    4.8610    6.3730 C   0  0  0  0  0  0  0  0  0  0  0  0
  -11.0350    6.2020    6.1170 C   0  0  0  0  0  0  0  0  0  0  0  0
  -11.7370    6.5580    4.9650 C   0  0  0  0  0  0  0  0  0  0  0  0
  -12.1550    5.5730    4.0710 C   0  0  0  0  0  0  0  0  0  0  0  0
  -11.8700    4.2310    4.3270 C   0  0  0  0  0  0  0  0  0  0  0  0
  -11.1660    3.8760    5.4790 C   0  0  0  0  0  0  0  0  0  0  0  0
  -12.0160    7.8660    4.7150 O   0  0  0  0  0  0  0  0  0  0  0  0
   -6.8990    7.6510    9.7710 O   0  0  0  0  0  0  0  0  0  0  0  0
   -6.9699    2.9286    5.5493 N   0  0  0  0  0  0  0  0  0  0  0  0
   -7.5149    2.1111    4.6474 N   0  0  0  0  0  0  0  0  0  0  0  0
   -8.6469    2.7297    4.2807 C   0  0  0  0  0  0  0  0  0  0  0  0
   -9.6249    2.3325    3.4392 N   0  0  0  0  0  0  0  0  0  0  0  0
   -9.6663    1.1193    2.6216 C   0  0  0  0  0  0  0  0  0  0  0  0
   -9.3306    1.4332    1.1867 C   0  0  0  0  0  0  0  0  0  0  0  0
   -8.0979    2.0262    0.8611 C   0  0  0  0  0  0  0  0  0  0  0  0
   -7.7843    2.3136   -0.4708 C   0  0  0  0  0  0  0  0  0  0  0  0
   -8.6919    2.0038   -1.4875 C   0  0  0  0  0  0  0  0  0  0  0  0
   -9.9142    1.4028   -1.1742 C   0  0  0  0  0  0  0  0  0  0  0  0
  -10.2334    1.1154    0.1567 C   0  0  0  0  0  0  0  0  0  0  0  0
  -10.4923    3.3818    3.5044 C   0  0  0  0  0  0  0  0  0  0  0  0
  -11.6940    3.5873    2.8401 C   0  0  0  0  0  0  0  0  0  0  0  0
  -12.1678    2.6950    2.0856 O   0  0  0  0  0  0  0  0  0  0  0  0
  -12.3568    4.7769    3.0381 N   0  0  0  0  0  0  0  0  0  0  0  0
  -13.6574    5.0106    2.3874 C   0  0  0  0  0  0  0  0  0  0  0  0
  -11.8332    5.7440    3.8803 C   0  0  0  0  0  0  0  0  0  0  0  0
  -12.4776    6.8140    4.0759 O   0  0  0  0  0  0  0  0  0  0  0  0
  -10.6168    5.5601    4.5058 N   0  0  0  0  0  0  0  0  0  0  0  0
   -9.9984    6.6563    5.2598 C   0  0  0  0  0  0  0  0  0  0  0  0
  -10.0127    4.3444    4.3635 C   0  0  0  0  0  0  0  0  0  0  0  0
   -8.8463    3.8921    4.8715 N   0  0  0  0  0  0  0  0  0  0  0  0
  1  3  4  0
  1 14  4  0
  1  2  1  0
  3  4  4  0
  4  5  4  0
  5  6  4  0
  5 22  1  0
  6  7  1  0
  6 14  4  0
  7  8  1  0
  8  9  4  0
  8 12  4  0
  9 10  4  0
 10 11  4  0
 11 12  4  0
 12 13  1  0
 13 14  1  0
 13 15  1  6
 15 16  4  0
 15 20  4  0
 16 17  4  0
 17 18  4  0
 17 21  1  0
 18 19  4  0
 19 20  4  0
 23 24  4  0
 24 25  4  0
 25 26  4  0
 26 27  1  0
 27 28  1  0
 28 29  4  0
 29 30  4  0
 30 31  4  0
 31 32  4  0
 32 33  4  0
 26 34  4  0
 34 35  4  0
 35 36  2  0
 35 37  4  0
 37 38  1  0
 37 39  4  0
 39 40  2  0
 39 41  4  0
 41 42  1  0
 41 43  4  0
 43 44  4  0
 44 25  4  0
 33 28  4  0
 43 34  4  0
  2 23  4  0
  2 44  4  0
M  END
$$$$

     RDKit          3D

 44 51  0  0  0  0  0  0  0  0999 V2000
   -7.6410    4.9930    6.8080 C   0  0  0  0  0  0  0  0  0  1  0  0
   -7.7310    4.0530    5.7140 C   0  0  0  0  0  0  0  0  0  2  0  0
   -6.4520    5.6300    6.8680 N   0  0  0  0  0  0  0  0  0  0  0  0
   -6.2260    6.5240    7.8670 N   0  0  0  0  0  0  0  0  0  0  0  0
   -7.1930    6.7500    8.7820 C   0  0  0  0  0  0  0  0  0  0  0  0
   -8.4240    6.1170    8.7580 C   0  0  0  0  0  0  0  0  0  0  0  0
   -9.3950    6.3570    9.7450 N   0  0  0  0  0  0  0  0  0  0  0  0
  -10.5620    5.6840    9.7600 C   0  0  0  0  0  0  0  0  0  0  0  0
  -11.5770    5.6820   10.5960 N   0  0  0  0  0  0  0  0  0  0  0  0
  -12.4690    4.7490   10.1080 N   0  0  0  0  0  0  0  0  0  0  0  0
  -12.0160    4.1880    8.9920 N   0  0  0  0  0  0  0  0  0  0  0  0
  -10.8400    4.7900    8.7610 N   0  0  0  0  0  0  0  0  0  0  0  0
   -9.9950    4.4790    7.6090 C   0  0  0  0  0  0  0  0  0  0  0  0
   -8.6630    5.2070    7.7200 C   0  0  0  0  0  0  0  0  0  0  0  0
  -10.7490    4.8610    6.3730 C   0  0  0  0  0  0  0  0  0  0  0  0
  -11.0350    6.2020    6.1170 C   0  0  0  0  0  0  0  0  0  0  0  0
  -11.7370    6.5580    4.9650 C   0  0  0  0  0  0  0  0  0  0  0  0
  -12.1550    5.5730    4.0710 C   0  0  0  0  0  0  0  0  0  0  0  0
  -11.8700    4.2310    4.3270 C   0  0  0  0  0  0  0  0  0  0  0  0
  -11.1660    3.8760    5.4790 C   0  0  0  0  0  0  0  0  0  0  0  0
  -12.0160    7.8660    4.7150 O   0  0  0  0  0  0  0  0  0  0  0  0
   -6.8990    7.6510    9.7710 O   0  0  0  0  0  0  0  0  0  0  0  0
   -7.0471    2.8690    5.6085 N   0  0  0  0  0  0  0  0  0  0  0  0
   -7.5898    2.0903    4.6715 N   0  0  0  0  0  0  0  0  0  0  0  0
   -8.6461    2.7903    4.2295 C   0  0  0  0  0  0  0  0  0  0  0  0
   -9.5828    2.4705    3.3112 N   0  0  0  0  0  0  0  0  0  0  0  0
   -9.6304    1.2576    2.4928 C   0  0  0  0  0  0  0  0  0  0  0  0
   -8.6168    1.3393    1.3825 C   0  0  0  0  0  0  0  0  0  0  0  0
   -8.7808    2.2675    0.3401 C   0  0  0  0  0  0  0  0  0  0  0  0
   -7.8351    2.3488   -0.6870 C   0  0  0  0  0  0  0  0  0  0  0  0
   -6.7200    1.5064   -0.6810 C   0  0  0  0  0  0  0  0  0  0  0  0
   -6.5477    0.5822    0.3532 C   0  0  0  0  0  0  0  0  0  0  0  0
   -7.4911    0.4973    1.3822 C   0  0  0  0  0  0  0  0  0  0  0  0
  -10.3677    3.5884    3.3104 C   0  0  0  0  0  0  0  0  0  0  0  0
  -11.4842    3.9044    2.5434 C   0  0  0  0  0  0  0  0  0  0  0  0
  -11.9444    3.0811    1.7067 O   0  0  0  0  0  0  0  0  0  0  0  0
  -12.0749    5.1343    2.7215 N   0  0  0  0  0  0  0  0  0  0  0  0
  -13.2648    5.4933    1.9297 C   0  0  0  0  0  0  0  0  0  0  0  0
  -11.5104    6.0709    3.5716 C   0  0  0  0  0  0  0  0  0  0  0  0
  -12.0339    7.2171    3.6679 O   0  0  0  0  0  0  0  0  0  0  0  0
  -10.3778    5.7763    4.3039 N   0  0  0  0  0  0  0  0  0  0  0  0
   -9.7296    6.8029    5.1294 C   0  0  0  0  0  0  0  0  0  0  0  0
   -9.8811    4.5088    4.2132 C   0  0  0  0  0  0  0  0  0  0  0  0
   -8.7959    3.9662    4.8043 N   0  0  0  0  0  0  0  0  0  0  0  0
  1  3  4  0
  1 14  4  0
  1  2  1  0
  3  4  4  0
  4  5  4  0
  5  6  4  0
  5 22  1  0
  6  7  1  0
  6 14  4  0
  7  8  1  0
  8  9  4  0
  8 12  4  0
  9 10  4  0
 10 11  4  0
 11 12  4  0
 12 13  1  0
 13 14  1  0
 13 15  1  6
 15 16  4  0
 15 20  4  0
 16 17  4  0
 17 18  4  0
 17 21  1  0
 18 19  4  0
 19 20  4  0
 23 24  4  0
 24 25  4  0
 25 26  4  0
 26 27  1  0
 27 28  1  0
 28 29  4  0
 29 30  4  0
 30 31  4  0
 31 32  4  0
 32 33  4  0
 26 34  4  0
 34 35  4  0
 35 36  2  0
 35 37  4  0
 37 38  1  0
 37 39  4  0
 39 40  2  0
 39 41  4  0
 41 42  1  0
 41 43  4  0
 43 44  4  0
 44 25  4  0
 33 28  4  0
 43 34  4  0
  2 23  4  0
  2 44  4  0
M  END
$$$$

     RDKit          3D

 28 32  0  0  0  0  0  0  0  0999 V2000
   -7.6410    4.9930    6.8080 C   0  0  0  0  0  0  0  0  0  1  0  0
   -7.7310    4.0530    5.7140 C   0  0  0  0  0  0  0  0  0  2  0  0
   -6.4520    5.6300    6.8680 N   0  0  0  0  0  0  0  0  0  0  0  0
   -6.2260    6.5240    7.8670 N   0  0  0  0  0  0  0  0  0  0  0  0
   -7.1930    6.7500    8.7820 C   0  0  0  0  0  0  0  0  0  0  0  0
   -8.4240    6.1170    8.7580 C   0  0  0  0  0  0  0  0  0  0  0  0
   -9.3950    6.3570    9.7450 N   0  0  0  0  0  0  0  0  0  0  0  0
  -10.5620    5.6840    9.7600 C   0  0  0  0  0  0  0  0  0  0  0  0
  -11.5770    5.6820   10.5960 N   0  0  0  0  0  0  0  0  0  0  0  0
  -12.4690    4.7490   10.1080 N   0  0  0  0  0  0  0  0  0  0  0  0
  -12.0160    4.1880    8.9920 N   0  0  0  0  0  0  0  0  0  0  0  0
  -10.8400    4.7900    8.7610 N   0  0  0  0  0  0  0  0  0  0  0  0
   -9.9950    4.4790    7.6090 C   0  0  0  0  0  0  0  0  0  0  0  0
   -8.6630    5.2070    7.7200 C   0  0  0  0  0  0  0  0  0  0  0  0
  -10.7490    4.8610    6.3730 C   0  0  0  0  0  0  0  0  0  0  0  0
  -11.0350    6.2020    6.1170 C   0  0  0  0  0  0  0  0  0  0  0  0
  -11.7370    6.5580    4.9650 C   0  0  0  0  0  0  0  0  0  0  0  0
  -12.1550    5.5730    4.0710 C   0  0  0  0  0  0  0  0  0  0  0  0
  -11.8700    4.2310    4.3270 C   0  0  0  0  0  0  0  0  0  0  0  0
  -11.1660    3.8760    5.4790 C   0  0  0  0  0  0  0  0  0  0  0  0
  -12.0160    7.8660    4.7150 O   0  0  0  0  0  0  0  0  0  0  0  0
   -6.8990    7.6510    9.7710 O   0  0  0  0  0  0  0  0  0  0  0  0
   -6.9298    2.9536    5.4082 C   0  0  0  0  0  0  0  0  0  0  0  0
   -7.3665    2.3101    4.3073 N   0  0  0  0  0  0  0  0  0  0  0  0
   -8.4586    2.9276    3.8830 N   0  0  0  0  0  0  0  0  0  0  0  0
   -9.1810    2.5434    2.6756 C   0  0  0  0  0  0  0  0  0  0  0  0
   -8.7285    3.9809    4.6822 C   0  0  0  0  0  0  0  0  0  0  0  0
   -9.8430    4.9602    4.4598 C   0  0  0  0  0  0  0  0  0  0  0  0
  1  3  4  0
  1 14  4  0
  1  2  1  0
  3  4  4  0
  4  5  4  0
  5  6  4  0
  5 22  1  0
  6  7  1  0
  6 14  4  0
  7  8  1  0
  8  9  4  0
  8 12  4  0
  9 10  4  0
 10 11  4  0
 11 12  4  0
 12 13  1  0
 13 14  1  0
 13 15  1  6
 15 16  4  0
 15 20  4  0
 16 17  4  0
 17 18  4  0
 17 21  1  0
 18 19  4  0
 19 20  4  0
 23 24  4  0
 24 25  4  0
 25 26  1  0
 25 27  4  0
 27 28  1  0
  2 23  4  0
  2 27  4  0
M  END
$$$$

     RDKit          3D

 35 40  0  0  0  0  0  0  0  0999 V2000
   -7.6410    4.9930    6.8080 C   0  0  0  0  0  0  0  0  0  1  0  0
   -7.7310    4.0530    5.7140 C   0  0  0  0  0  0  0  0  0  2  0  0
   -6.4520    5.6300    6.8680 N   0  0  0  0  0  0  0  0  0  0  0  0
   -6.2260    6.5240    7.8670 N   0  0  0  0  0  0  0  0  0  0  0  0
   -7.1930    6.7500    8.7820 C   0  0  0  0  0  0  0  0  0  0  0  0
   -8.4240    6.1170    8.7580 C   0  0  0  0  0  0  0  0  0  0  0  0
   -9.3950    6.3570    9.7450 N   0  0  0  0  0  0  0  0  0  0  0  0
  -10.5620    5.6840    9.7600 C   0  0  0  0  0  0  0  0  0  0  0  0
  -11.5770    5.6820   10.5960 N   0  0  0  0  0  0  0  0  0  0  0  0
  -12.4690    4.7490   10.1080 N   0  0  0  0  0  0  0  0  0  0  0  0
  -12.0160    4.1880    8.9920 N   0  0  0  0  0  0  0  0  0  0  0  0
  -10.8400    4.7900    8.7610 N   0  0  0  0  0  0  0  0  0  0  0  0
   -9.9950    4.4790    7.6090 C   0  0  0  0  0  0  0  0  0  0  0  0
   -8.6630    5.2070    7.7200 C   0  0  0  0  0  0  0  0  0  0  0  0
  -10.7490    4.8610    6.3730 C   0  0  0  0  0  0  0  0  0  0  0  0
  -11.0350    6.2020    6.1170 C   0  0  0  0  0  0  0  0  0  0  0  0
  -11.7370    6.5580    4.9650 C   0  0  0  0  0  0  0  0  0  0  0  0
  -12.1550    5.5730    4.0710 C   0  0  0  0  0  0  0  0  0  0  0  0
  -11.8700    4.2310    4.3270 C   0  0  0  0  0  0  0  0  0  0  0  0
  -11.1660    3.8760    5.4790 C   0  0  0  0  0  0  0  0  0  0  0  0
  -12.0160    7.8660    4.7150 O   0  0  0  0  0  0  0  0  0  0  0  0
   -6.8990    7.6510    9.7710 O   0  0  0  0  0  0  0  0  0  0  0  0
   -6.7907    3.1840    5.2902 N   0  0  0  0  0  0  0  0  0  0  0  0
   -7.2673    2.4427    4.3010 N   0  0  0  0  0  0  0  0  0  0  0  0
   -8.5406    2.8291    4.1025 C   0  0  0  0  0  0  0  0  0  0  0  0
   -9.6072    2.1057    2.8550 S   0  0  0  0  0  0  0  0  0  0  0  0
   -9.0738    3.2713    1.5577 C   0  0  0  0  0  0  0  0  0  0  0  0
   -9.8849    3.0558    0.3117 C   0  0  0  0  0  0  0  0  0  0  0  0
  -11.2534    3.3646    0.2994 C   0  0  0  0  0  0  0  0  0  0  0  0
  -11.9938    3.1655   -0.8684 C   0  0  0  0  0  0  0  0  0  0  0  0
  -11.3893    2.6790   -1.9847 N   0  0  0  0  0  0  0  0  0  0  0  0
  -10.0642    2.3749   -2.0024 C   0  0  0  0  0  0  0  0  0  0  0  0
   -9.2868    2.5590   -0.8562 C   0  0  0  0  0  0  0  0  0  0  0  0
   -8.8975    3.8184    4.9448 N   0  0  0  0  0  0  0  0  0  0  0  0
  -10.1838    4.5109    5.0113 C   0  0  0  0  0  0  0  0  0  0  0  0
  1  3  4  0
  1 14  4  0
  1  2  1  0
  3  4  4  0
  4  5  4  0
  5  6  4  0
  5 22  1  0
  6  7  1  0
  6 14  4  0
  7  8  1  0
  8  9  4  0
  8 12  4  0
  9 10  4  0
 10 11  4  0
 11 12  4  0
 12 13  1  0
 13 14  1  0
 13 15  1  6
 15 16  4  0
 15 20  4  0
 16 17  4  0
 17 18  4  0
 17 21  1  0
 18 19  4  0
 19 20  4  0
 23 24  4  0
 24 25  4  0
 25 26  1  0
 26 27  1  0
 27 28  1  0
 28 29  4  0
 29 30  4  0
 30 31  4  0
 31 32  4  0
 32 33  4  0
 25 34  4  0
 34 35  1  0
 33 28  4  0
  2 23  4  0
  2 34  4  0
M  END
$$$$

     RDKit          3D

 35 40  0  0  0  0  0  0  0  0999 V2000
   -7.6410    4.9930    6.8080 C   0  0  0  0  0  0  0  0  0  1  0  0
   -7.7310    4.0530    5.7140 C   0  0  0  0  0  0  0  0  0  2  0  0
   -6.4520    5.6300    6.8680 N   0  0  0  0  0  0  0  0  0  0  0  0
   -6.2260    6.5240    7.8670 N   0  0  0  0  0  0  0  0  0  0  0  0
   -7.1930    6.7500    8.7820 C   0  0  0  0  0  0  0  0  0  0  0  0
   -8.4240    6.1170    8.7580 C   0  0  0  0  0  0  0  0  0  0  0  0
   -9.3950    6.3570    9.7450 N   0  0  0  0  0  0  0  0  0  0  0  0
  -10.5620    5.6840    9.7600 C   0  0  0  0  0  0  0  0  0  0  0  0
  -11.5770    5.6820   10.5960 N   0  0  0  0  0  0  0  0  0  0  0  0
  -12.4690    4.7490   10.1080 N   0  0  0  0  0  0  0  0  0  0  0  0
  -12.0160    4.1880    8.9920 N   0  0  0  0  0  0  0  0  0  0  0  0
  -10.8400    4.7900    8.7610 N   0  0  0  0  0  0  0  0  0  0  0  0
   -9.9950    4.4790    7.6090 C   0  0  0  0  0  0  0  0  0  0  0  0
   -8.6630    5.2070    7.7200 C   0  0  0  0  0  0  0  0  0  0  0  0
  -10.7490    4.8610    6.3730 C   0  0  0  0  0  0  0  0  0  0  0  0
  -11.0350    6.2020    6.1170 C   0  0  0  0  0  0  0  0  0  0  0  0
  -11.7370    6.5580    4.9650 C   0  0  0  0  0  0  0  0  0  0  0  0
  -12.1550    5.5730    4.0710 C   0  0  0  0  0  0  0  0  0  0  0  0
  -11.8700    4.2310    4.3270 C   0  0  0  0  0  0  0  0  0  0  0  0
  -11.1660    3.8760    5.4790 C   0  0  0  0  0  0  0  0  0  0  0  0
  -12.0160    7.8660    4.7150 O   0  0  0  0  0  0  0  0  0  0  0  0
   -6.8990    7.6510    9.7710 O   0  0  0  0  0  0  0  0  0  0  0  0
   -6.7909    3.1842    5.2895 N   0  0  0  0  0  0  0  0  0  0  0  0
   -7.2699    2.4383    4.3048 N   0  0  0  0  0  0  0  0  0  0  0  0
   -8.5450    2.8210    4.1109 C   0  0  0  0  0  0  0  0  0  0  0  0
   -9.6195    2.0842    2.8781 S   0  0  0  0  0  0  0  0  0  0  0  0
  -10.2776    0.8369    4.0338 C   0  0  0  0  0  0  0  0  0  0  0  0
  -11.3516    0.0310    3.3598 C   0  0  0  0  0  0  0  0  0  0  0  0
  -11.1602   -1.3316    3.0859 C   0  0  0  0  0  0  0  0  0  0  0  0
  -12.1791   -2.0580    2.4643 C   0  0  0  0  0  0  0  0  0  0  0  0
  -13.3475   -1.4477    2.1317 N   0  0  0  0  0  0  0  0  0  0  0  0
  -13.5614   -0.1301    2.3889 C   0  0  0  0  0  0  0  0  0  0  0  0
  -12.5692    0.6332    3.0088 C   0  0  0  0  0  0  0  0  0  0  0  0
   -8.8995    3.8144    4.9488 N   0  0  0  0  0  0  0  0  0  0  0  0
  -10.1866    4.5047    5.0148 C   0  0  0  0  0  0  0  0  0  0  0  0
  1  3  4  0
  1 14  4  0
  1  2  1  0
  3  4  4  0
  4  5  4  0
  5  6  4  0
  5 22  1  0
  6  7  1  0
  6 14  4  0
  7  8  1  0
  8  9  4  0
  8 12  4  0
  9 10  4  0
 10 11  4  0
 11 12  4  0
 12 13  1  0
 13 14  1  0
 13 15  1  6
 15 16  4  0
 15 20  4  0
 16 17  4  0
 17 18  4  0
 17 21  1  0
 18 19  4  0
 19 20  4  0
 23 24  4  0
 24 25  4  0
 25 26  1  0
 26 27  1  0
 27 28  1  0
 28 29  4  0
 29 30  4  0
 30 31  4  0
 31 32  4  0
 32 33  4  0
 25 34  4  0
 34 35  1  0
 33 28  4  0
  2 23  4  0
  2 34  4  0
M  END
$$$$

     RDKit          3D

 35 40  0  0  0  0  0  0  0  0999 V2000
   -7.6410    4.9930    6.8080 C   0  0  0  0  0  0  0  0  0  1  0  0
   -7.7310    4.0530    5.7140 C   0  0  0  0  0  0  0  0  0  2  0  0
   -6.4520    5.6300    6.8680 N   0  0  0  0  0  0  0  0  0  0  0  0
   -6.2260    6.5240    7.8670 N   0  0  0  0  0  0  0  0  0  0  0  0
   -7.1930    6.7500    8.7820 C   0  0  0  0  0  0  0  0  0  0  0  0
   -8.4240    6.1170    8.7580 C   0  0  0  0  0  0  0  0  0  0  0  0
   -9.3950    6.3570    9.7450 N   0  0  0  0  0  0  0  0  0  0  0  0
  -10.5620    5.6840    9.7600 C   0  0  0  0  0  0  0  0  0  0  0  0
  -11.5770    5.6820   10.5960 N   0  0  0  0  0  0  0  0  0  0  0  0
  -12.4690    4.7490   10.1080 N   0  0  0  0  0  0  0  0  0  0  0  0
  -12.0160    4.1880    8.9920 N   0  0  0  0  0  0  0  0  0  0  0  0
  -10.8400    4.7900    8.7610 N   0  0  0  0  0  0  0  0  0  0  0  0
   -9.9950    4.4790    7.6090 C   0  0  0  0  0  0  0  0  0  0  0  0
   -8.6630    5.2070    7.7200 C   0  0  0  0  0  0  0  0  0  0  0  0
  -10.7490    4.8610    6.3730 C   0  0  0  0  0  0  0  0  0  0  0  0
  -11.0350    6.2020    6.1170 C   0  0  0  0  0  0  0  0  0  0  0  0
  -11.7370    6.5580    4.9650 C   0  0  0  0  0  0  0  0  0  0  0  0
  -12.1550    5.5730    4.0710 C   0  0  0  0  0  0  0  0  0  0  0  0
  -11.8700    4.2310    4.3270 C   0  0  0  0  0  0  0  0  0  0  0  0
  -11.1660    3.8760    5.4790 C   0  0  0  0  0  0  0  0  0  0  0  0
  -12.0160    7.8660    4.7150 O   0  0  0  0  0  0  0  0  0  0  0  0
   -6.8990    7.6510    9.7710 O   0  0  0  0  0  0  0  0  0  0  0  0
   -6.7905    3.1846    5.2898 N   0  0  0  0  0  0  0  0  0  0  0  0
   -7.2670    2.4429    4.3009 N   0  0  0  0  0  0  0  0  0  0  0  0
   -8.5405    2.8285    4.1029 C   0  0  0  0  0  0  0  0  0  0  0  0
   -9.6068    2.1033    2.8557 S   0  0  0  0  0  0  0  0  0  0  0  0
   -9.0683    3.2629    1.5551 C   0  0  0  0  0  0  0  0  0  0  0  0
   -9.8041    2.9761    0.2769 C   0  0  0  0  0  0  0  0  0  0  0  0
   -9.5676    1.7824   -0.4214 C   0  0  0  0  0  0  0  0  0  0  0  0
  -10.2555    1.5327   -1.6112 C   0  0  0  0  0  0  0  0  0  0  0  0
  -11.1453    2.4429   -2.0886 N   0  0  0  0  0  0  0  0  0  0  0  0
  -11.3918    3.6091   -1.4349 C   0  0  0  0  0  0  0  0  0  0  0  0
  -10.7254    3.8987   -0.2415 C   0  0  0  0  0  0  0  0  0  0  0  0
   -8.8977    3.8176    4.9453 N   0  0  0  0  0  0  0  0  0  0  0  0
  -10.1847    4.5083    5.0141 C   0  0  0  0  0  0  0  0  0  0  0  0
  1  3  4  0
  1 14  4  0
  1  2  1  0
  3  4  4  0
  4  5  4  0
  5  6  4  0
  5 22  1  0
  6  7  1  0
  6 14  4  0
  7  8  1  0
  8  9  4  0
  8 12  4  0
  9 10  4  0
 10 11  4  0
 11 12  4  0
 12 13  1  0
 13 14  1  0
 13 15  1  6
 15 16  4  0
 15 20  4  0
 16 17  4  0
 17 18  4  0
 17 21  1  0
 18 19  4  0
 19 20  4  0
 23 24  4  0
 24 25  4  0
 25 26  1  0
 26 27  1  0
 27 28  1  0
 28 29  4  0
 29 30  4  0
 30 31  4  0
 31 32  4  0
 32 33  4  0
 25 34  4  0
 34 35  1  0
 33 28  4  0
  2 23  4  0
  2 34  4  0
M  END
$$$$

     RDKit          3D

 45 50  0  0  0  0  0  0  0  0999 V2000
   -7.6410    4.9930    6.8080 C   0  0  0  0  0  0  0  0  0  1  0  0
   -7.7310    4.0530    5.7140 C   0  0  0  0  0  0  0  0  0  2  0  0
   -6.4520    5.6300    6.8680 N   0  0  0  0  0  0  0  0  0  0  0  0
   -6.2260    6.5240    7.8670 N   0  0  0  0  0  0  0  0  0  0  0  0
   -7.1930    6.7500    8.7820 C   0  0  0  0  0  0  0  0  0  0  0  0
   -8.4240    6.1170    8.7580 C   0  0  0  0  0  0  0  0  0  0  0  0
   -9.3950    6.3570    9.7450 N   0  0  0  0  0  0  0  0  0  0  0  0
  -10.5620    5.6840    9.7600 C   0  0  0  0  0  0  0  0  0  0  0  0
  -11.5770    5.6820   10.5960 N   0  0  0  0  0  0  0  0  0  0  0  0
  -12.4690    4.7490   10.1080 N   0  0  0  0  0  0  0  0  0  0  0  0
  -12.0160    4.1880    8.9920 N   0  0  0  0  0  0  0  0  0  0  0  0
  -10.8400    4.7900    8.7610 N   0  0  0  0  0  0  0  0  0  0  0  0
   -9.9950    4.4790    7.6090 C   0  0  0  0  0  0  0  0  0  0  0  0
   -8.6630    5.2070    7.7200 C   0  0  0  0  0  0  0  0  0  0  0  0
  -10.7490    4.8610    6.3730 C   0  0  0  0  0  0  0  0  0  0  0  0
  -11.0350    6.2020    6.1170 C   0  0  0  0  0  0  0  0  0  0  0  0
  -11.7370    6.5580    4.9650 C   0  0  0  0  0  0  0  0  0  0  0  0
  -12.1550    5.5730    4.0710 C   0  0  0  0  0  0  0  0  0  0  0  0
  -11.8700    4.2310    4.3270 C   0  0  0  0  0  0  0  0  0  0  0  0
  -11.1660    3.8760    5.4790 C   0  0  0  0  0  0  0  0  0  0  0  0
  -12.0160    7.8660    4.7150 O   0  0  0  0  0  0  0  0  0  0  0  0
   -6.8990    7.6510    9.7710 O   0  0  0  0  0  0  0  0  0  0  0  0
   -6.8406    3.0862    5.3969 N   0  0  0  0  0  0  0  0  0  0  0  0
   -7.2733    2.4391    4.3280 N   0  0  0  0  0  0  0  0  0  0  0  0
   -8.4509    2.9731    3.9682 C   0  0  0  0  0  0  0  0  0  0  0  0
   -9.2874    2.5002    2.6390 S   0  0  0  0  0  0  0  0  0  0  0  0
   -8.8102    3.9733    4.8030 N   0  0  0  0  0  0  0  0  0  0  0  0
   -9.9238    4.9234    4.6489 C   0  0  0  0  0  0  0  0  0  0  0  0
   -9.4270    6.3201    4.2519 C   0  0  0  0  0  0  0  0  0  0  0  0
   -8.5450    6.2739    3.0384 C   0  0  0  0  0  0  0  0  0  0  0  0
   -7.3234    6.5671    3.1482 O   0  0  0  0  0  0  0  0  0  0  0  0
   -9.0840    5.8872    1.7705 N   0  0  0  0  0  0  0  0  0  0  0  0
   -8.2104    5.6227    0.6289 C   0  0  0  0  0  0  0  0  0  0  0  0
   -9.0135    5.2340   -0.5831 C   0  0  0  0  0  0  0  0  0  0  0  0
   -9.7851    6.1974   -1.2499 C   0  0  0  0  0  0  0  0  0  0  0  0
  -10.5103    5.8504   -2.3920 C   0  0  0  0  0  0  0  0  0  0  0  0
  -10.4746    4.5396   -2.8731 C   0  0  0  0  0  0  0  0  0  0  0  0
   -9.7325    3.5572   -2.2028 C   0  0  0  0  0  0  0  0  0  0  0  0
   -9.6914    2.2214   -2.7316 N   0  0  0  0  0  0  0  0  0  0  0  0
   -9.6614    1.0403   -1.9113 C   0  0  0  0  0  0  0  0  0  0  0  0
   -9.8514    1.1235   -0.6723 O   0  0  0  0  0  0  0  0  0  0  0  0
   -9.3617   -0.3146   -2.5023 C   0  0  0  0  0  0  0  0  0  0  0  0
   -9.5506   -0.3357   -3.9044 O   0  0  0  0  0  0  0  0  0  0  0  0
  -10.9036   -0.5993   -4.2100 C   0  0  0  0  0  0  0  0  0  0  0  0
   -8.9887    3.9147   -1.0643 C   0  0  0  0  0  0  0  0  0  0  0  0
  1  3  4  0
  1 14  4  0
  1  2  1  0
  3  4  4  0
  4  5  4  0
  5  6  4  0
  5 22  1  0
  6  7  1  0
  6 14  4  0
  7  8  1  0
  8  9  4  0
  8 12  4  0
  9 10  4  0
 10 11  4  0
 11 12  4  0
 12 13  1  0
 13 14  1  0
 13 15  1  6
 15 16  4  0
 15 20  4  0
 16 17  4  0
 17 18  4  0
 17 21  1  0
 18 19  4  0
 19 20  4  0
 23 24  4  0
 24 25  4  0
 25 26  2  0
 25 27  4  0
 27 28  1  0
 28 29  1  0
 29 30  1  0
 30 31  2  0
 30 32  1  0
 32 33  1  0
 33 34  1  0
 34 35  4  0
 35 36  4  0
 36 37  4  0
 37 38  4  0
 38 39  1  0
 39 40  1  0
 40 41  2  0
 40 42  1  0
 42 43  1  0
 43 44  1  0
 38 45  4  0
 45 34  4  0
  2 23  4  0
  2 27  4  0
M  END
$$$$

     RDKit          3D

 45 50  0  0  0  0  0  0  0  0999 V2000
   -7.6410    4.9930    6.8080 C   0  0  0  0  0  0  0  0  0  1  0  0
   -7.7310    4.0530    5.7140 C   0  0  0  0  0  0  0  0  0  2  0  0
   -6.4520    5.6300    6.8680 N   0  0  0  0  0  0  0  0  0  0  0  0
   -6.2260    6.5240    7.8670 N   0  0  0  0  0  0  0  0  0  0  0  0
   -7.1930    6.7500    8.7820 C   0  0  0  0  0  0  0  0  0  0  0  0
   -8.4240    6.1170    8.7580 C   0  0  0  0  0  0  0  0  0  0  0  0
   -9.3950    6.3570    9.7450 N   0  0  0  0  0  0  0  0  0  0  0  0
  -10.5620    5.6840    9.7600 C   0  0  0  0  0  0  0  0  0  0  0  0
  -11.5770    5.6820   10.5960 N   0  0  0  0  0  0  0  0  0  0  0  0
  -12.4690    4.7490   10.1080 N   0  0  0  0  0  0  0  0  0  0  0  0
  -12.0160    4.1880    8.9920 N   0  0  0  0  0  0  0  0  0  0  0  0
  -10.8400    4.7900    8.7610 N   0  0  0  0  0  0  0  0  0  0  0  0
   -9.9950    4.4790    7.6090 C   0  0  0  0  0  0  0  0  0  0  0  0
   -8.6630    5.2070    7.7200 C   0  0  0  0  0  0  0  0  0  0  0  0
  -10.7490    4.8610    6.3730 C   0  0  0  0  0  0  0  0  0  0  0  0
  -11.0350    6.2020    6.1170 C   0  0  0  0  0  0  0  0  0  0  0  0
  -11.7370    6.5580    4.9650 C   0  0  0  0  0  0  0  0  0  0  0  0
  -12.1550    5.5730    4.0710 C   0  0  0  0  0  0  0  0  0  0  0  0
  -11.8700    4.2310    4.3270 C   0  0  0  0  0  0  0  0  0  0  0  0
  -11.1660    3.8760    5.4790 C   0  0  0  0  0  0  0  0  0  0  0  0
  -12.0160    7.8660    4.7150 O   0  0  0  0  0  0  0  0  0  0  0  0
   -6.8990    7.6510    9.7710 O   0  0  0  0  0  0  0  0  0  0  0  0
   -6.8564    3.0644    5.4121 N   0  0  0  0  0  0  0  0  0  0  0  0
   -7.3126    2.3930    4.3693 N   0  0  0  0  0  0  0  0  0  0  0  0
   -8.4907    2.9270    4.0096 C   0  0  0  0  0  0  0  0  0  0  0  0
   -9.3628    2.4147    2.7196 S   0  0  0  0  0  0  0  0  0  0  0  0
   -8.8302    3.9487    4.8239 N   0  0  0  0  0  0  0  0  0  0  0  0
   -9.9321    4.9043    4.6577 C   0  0  0  0  0  0  0  0  0  0  0  0
   -9.4494    6.1844    3.9670 C   0  0  0  0  0  0  0  0  0  0  0  0
   -9.1274    5.9476    2.5138 C   0  0  0  0  0  0  0  0  0  0  0  0
   -7.9181    5.8253    2.1739 O   0  0  0  0  0  0  0  0  0  0  0  0
  -10.1445    5.8843    1.5015 N   0  0  0  0  0  0  0  0  0  0  0  0
  -11.5295    6.3079    1.7282 C   0  0  0  0  0  0  0  0  0  0  0  0
  -12.2868    6.3816    0.4270 C   0  0  0  0  0  0  0  0  0  0  0  0
  -11.9158    7.3264   -0.5418 C   0  0  0  0  0  0  0  0  0  0  0  0
  -12.6443    7.4503   -1.7219 C   0  0  0  0  0  0  0  0  0  0  0  0
  -13.7482    6.6238   -1.9544 C   0  0  0  0  0  0  0  0  0  0  0  0
  -14.1217    5.6560   -1.0064 C   0  0  0  0  0  0  0  0  0  0  0  0
  -15.2847    4.8391   -1.2019 N   0  0  0  0  0  0  0  0  0  0  0  0
  -15.7166    4.3550   -2.4823 C   0  0  0  0  0  0  0  0  0  0  0  0
  -16.9489    4.3023   -2.7370 O   0  0  0  0  0  0  0  0  0  0  0  0
  -14.7316    3.9186   -3.5283 C   0  0  0  0  0  0  0  0  0  0  0  0
  -13.6539    3.2481   -2.9066 O   0  0  0  0  0  0  0  0  0  0  0  0
  -12.6369    3.0113   -3.8575 C   0  0  0  0  0  0  0  0  0  0  0  0
  -13.3947    5.5499    0.1880 C   0  0  0  0  0  0  0  0  0  0  0  0
  1  3  4  0
  1 14  4  0
  1  2  1  0
  3  4  4  0
  4  5  4  0
  5  6  4  0
  5 22  1  0
  6  7  1  0
  6 14  4  0
  7  8  1  0
  8  9  4  0
  8 12  4  0
  9 10  4  0
 10 11  4  0
 11 12  4  0
 12 13  1  0
 13 14  1  0
 13 15  1  6
 15 16  4  0
 15 20  4  0
 16 17  4  0
 17 18  4  0
 17 21  1  0
 18 19  4  0
 19 20  4  0
 23 24  4  0
 24 25  4  0
 25 26  2  0
 25 27  4  0
 27 28  1  0
 28 29  1  0
 29 30  1  0
 30 31  2  0
 30 32  1  0
 32 33  1  0
 33 34  1  0
 34 35  4  0
 35 36  4  0
 36 37  4  0
 37 38  4  0
 38 39  1  0
 39 40  1  0
 40 41  2  0
 40 42  1  0
 42 43  1  0
 43 44  1  0
 38 45  4  0
 45 34  4  0
  2 23  4  0
  2 27  4  0
M  END
$$$$

     RDKit          3D

 30 35  0  0  0  0  0  0  0  0999 V2000
   -7.6410    4.9930    6.8080 C   0  0  0  0  0  0  0  0  0  1  0  0
   -7.7310    4.0530    5.7140 C   0  0  0  0  0  0  0  0  0  2  0  0
   -6.4520    5.6300    6.8680 N   0  0  0  0  0  0  0  0  0  0  0  0
   -6.2260    6.5240    7.8670 N   0  0  0  0  0  0  0  0  0  0  0  0
   -7.1930    6.7500    8.7820 C   0  0  0  0  0  0  0  0  0  0  0  0
   -8.4240    6.1170    8.7580 C   0  0  0  0  0  0  0  0  0  0  0  0
   -9.3950    6.3570    9.7450 N   0  0  0  0  0  0  0  0  0  0  0  0
  -10.5620    5.6840    9.7600 C   0  0  0  0  0  0  0  0  0  0  0  0
  -11.5770    5.6820   10.5960 N   0  0  0  0  0  0  0  0  0  0  0  0
  -12.4690    4.7490   10.1080 N   0  0  0  0  0  0  0  0  0  0  0  0
  -12.0160    4.1880    8.9920 N   0  0  0  0  0  0  0  0  0  0  0  0
  -10.8400    4.7900    8.7610 N   0  0  0  0  0  0  0  0  0  0  0  0
   -9.9950    4.4790    7.6090 C   0  0  0  0  0  0  0  0  0  0  0  0
   -8.6630    5.2070    7.7200 C   0  0  0  0  0  0  0  0  0  0  0  0
  -10.7490    4.8610    6.3730 C   0  0  0  0  0  0  0  0  0  0  0  0
  -11.0350    6.2020    6.1170 C   0  0  0  0  0  0  0  0  0  0  0  0
  -11.7370    6.5580    4.9650 C   0  0  0  0  0  0  0  0  0  0  0  0
  -12.1550    5.5730    4.0710 C   0  0  0  0  0  0  0  0  0  0  0  0
  -11.8700    4.2310    4.3270 C   0  0  0  0  0  0  0  0  0  0  0  0
  -11.1660    3.8760    5.4790 C   0  0  0  0  0  0  0  0  0  0  0  0
  -12.0160    7.8660    4.7150 O   0  0  0  0  0  0  0  0  0  0  0  0
   -6.8990    7.6510    9.7710 O   0  0  0  0  0  0  0  0  0  0  0  0
   -6.7473    3.3220    5.1485 N   0  0  0  0  0  0  0  0  0  0  0  0
   -7.2157    2.5586    4.1720 N   0  0  0  0  0  0  0  0  0  0  0  0
   -8.5426    2.7381    4.0720 C   0  0  0  0  0  0  0  0  0  0  0  0
   -8.9436    3.6684    4.9988 C   0  0  0  0  0  0  0  0  0  0  0  0
  -10.3565    4.1592    5.1322 C   0  0  0  0  0  0  0  0  0  0  0  0
  -11.1506    3.8667    3.8436 C   0  0  0  0  0  0  0  0  0  0  0  0
  -10.9113    2.4268    3.3424 C   0  0  0  0  0  0  0  0  0  0  0  0
   -9.4285    2.1834    2.9983 C   0  0  0  0  0  0  0  0  0  0  0  0
  1  3  4  0
  1 14  4  0
  1  2  1  0
  3  4  4  0
  4  5  4  0
  5  6  4  0
  5 22  1  0
  6  7  1  0
  6 14  4  0
  7  8  1  0
  8  9  4  0
  8 12  4  0
  9 10  4  0
 10 11  4  0
 11 12  4  0
 12 13  1  0
 13 14  1  0
 13 15  1  6
 15 16  4  0
 15 20  4  0
 16 17  4  0
 17 18  4  0
 17 21  1  0
 18 19  4  0
 19 20  4  0
 23 24  4  0
 24 25  4  0
 25 26  4  0
 26 27  1  0
 27 28  1  0
 28 29  1  0
 29 30  1  0
 30 25  1  0
  2 23  4  0
  2 26  4  0
M  END
$$$$

     RDKit          3D

 30 34  0  0  0  0  0  0  0  0999 V2000
   -7.6410    4.9930    6.8080 C   0  0  0  0  0  0  0  0  0  1  0  0
   -7.7310    4.0530    5.7140 C   0  0  0  0  0  0  0  0  0  2  0  0
   -6.4520    5.6300    6.8680 N   0  0  0  0  0  0  0  0  0  0  0  0
   -6.2260    6.5240    7.8670 N   0  0  0  0  0  0  0  0  0  0  0  0
   -7.1930    6.7500    8.7820 C   0  0  0  0  0  0  0  0  0  0  0  0
   -8.4240    6.1170    8.7580 C   0  0  0  0  0  0  0  0  0  0  0  0
   -9.3950    6.3570    9.7450 N   0  0  0  0  0  0  0  0  0  0  0  0
  -10.5620    5.6840    9.7600 C   0  0  0  0  0  0  0  0  0  0  0  0
  -11.5770    5.6820   10.5960 N   0  0  0  0  0  0  0  0  0  0  0  0
  -12.4690    4.7490   10.1080 N   0  0  0  0  0  0  0  0  0  0  0  0
  -12.0160    4.1880    8.9920 N   0  0  0  0  0  0  0  0  0  0  0  0
  -10.8400    4.7900    8.7610 N   0  0  0  0  0  0  0  0  0  0  0  0
   -9.9950    4.4790    7.6090 C   0  0  0  0  0  0  0  0  0  0  0  0
   -8.6630    5.2070    7.7200 C   0  0  0  0  0  0  0  0  0  0  0  0
  -10.7490    4.8610    6.3730 C   0  0  0  0  0  0  0  0  0  0  0  0
  -11.0350    6.2020    6.1170 C   0  0  0  0  0  0  0  0  0  0  0  0
  -11.7370    6.5580    4.9650 C   0  0  0  0  0  0  0  0  0  0  0  0
  -12.1550    5.5730    4.0710 C   0  0  0  0  0  0  0  0  0  0  0  0
  -11.8700    4.2310    4.3270 C   0  0  0  0  0  0  0  0  0  0  0  0
  -11.1660    3.8760    5.4790 C   0  0  0  0  0  0  0  0  0  0  0  0
  -12.0160    7.8660    4.7150 O   0  0  0  0  0  0  0  0  0  0  0  0
   -6.8990    7.6510    9.7710 O   0  0  0  0  0  0  0  0  0  0  0  0
   -6.6919    3.1887    5.3549 C   0  0  0  0  0  0  0  0  0  0  0  0
   -6.8264    2.1977    4.3837 C   0  0  0  0  0  0  0  0  0  0  0  0
   -8.0458    2.0123    3.7348 C   0  0  0  0  0  0  0  0  0  0  0  0
   -9.1434    2.8392    4.0365 C   0  0  0  0  0  0  0  0  0  0  0  0
  -10.3829    2.6944    3.3932 O   0  0  0  0  0  0  0  0  0  0  0  0
  -10.6675    1.7137    2.4005 C   0  0  0  0  0  0  0  0  0  0  0  0
   -9.0060    3.8527    4.9998 C   0  0  0  0  0  0  0  0  0  0  0  0
  -10.0954    4.7011    5.2156 O   0  0  0  0  0  0  0  0  0  0  0  0
  1  3  4  0
  1 14  4  0
  1  2  1  0
  3  4  4  0
  4  5  4  0
  5  6  4  0
  5 22  1  0
  6  7  1  0
  6 14  4  0
  7  8  1  0
  8  9  4  0
  8 12  4  0
  9 10  4  0
 10 11  4  0
 11 12  4  0
 12 13  1  0
 13 14  1  0
 13 15  1  6
 15 16  4  0
 15 20  4  0
 16 17  4  0
 17 18  4  0
 17 21  1  0
 18 19  4  0
 19 20  4  0
 23 24  4  0
 24 25  4  0
 25 26  4  0
 26 27  1  0
 27 28  1  0
 26 29  4  0
 29 30  1  0
  2 23  4  0
  2 29  4  0
M  END
$$$$

     RDKit          3D

 40 47  0  0  0  0  0  0  0  0999 V2000
   -7.6410    4.9930    6.8080 C   0  0  0  0  0  0  0  0  0  1  0  0
   -7.7310    4.0530    5.7140 C   0  0  0  0  0  0  0  0  0  2  0  0
   -6.4520    5.6300    6.8680 N   0  0  0  0  0  0  0  0  0  0  0  0
   -6.2260    6.5240    7.8670 N   0  0  0  0  0  0  0  0  0  0  0  0
   -7.1930    6.7500    8.7820 C   0  0  0  0  0  0  0  0  0  0  0  0
   -8.4240    6.1170    8.7580 C   0  0  0  0  0  0  0  0  0  0  0  0
   -9.3950    6.3570    9.7450 N   0  0  0  0  0  0  0  0  0  0  0  0
  -10.5620    5.6840    9.7600 C   0  0  0  0  0  0  0  0  0  0  0  0
  -11.5770    5.6820   10.5960 N   0  0  0  0  0  0  0  0  0  0  0  0
  -12.4690    4.7490   10.1080 N   0  0  0  0  0  0  0  0  0  0  0  0
  -12.0160    4.1880    8.9920 N   0  0  0  0  0  0  0  0  0  0  0  0
  -10.8400    4.7900    8.7610 N   0  0  0  0  0  0  0  0  0  0  0  0
   -9.9950    4.4790    7.6090 C   0  0  0  0  0  0  0  0  0  0  0  0
   -8.6630    5.2070    7.7200 C   0  0  0  0  0  0  0  0  0  0  0  0
  -10.7490    4.8610    6.3730 C   0  0  0  0  0  0  0  0  0  0  0  0
  -11.0350    6.2020    6.1170 C   0  0  0  0  0  0  0  0  0  0  0  0
  -11.7370    6.5580    4.9650 C   0  0  0  0  0  0  0  0  0  0  0  0
  -12.1550    5.5730    4.0710 C   0  0  0  0  0  0  0  0  0  0  0  0
  -11.8700    4.2310    4.3270 C   0  0  0  0  0  0  0  0  0  0  0  0
  -11.1660    3.8760    5.4790 C   0  0  0  0  0  0  0  0  0  0  0  0
  -12.0160    7.8660    4.7150 O   0  0  0  0  0  0  0  0  0  0  0  0
   -6.8990    7.6510    9.7710 O   0  0  0  0  0  0  0  0  0  0  0  0
   -6.7595    3.4171    5.0351 N   0  0  0  0  0  0  0  0  0  0  0  0
   -7.2826    2.7108    4.0388 N   0  0  0  0  0  0  0  0  0  0  0  0
   -8.6188    2.8343    4.1445 C   0  0  0  0  0  0  0  0  0  0  0  0
   -8.9585    3.6356    5.1379 N   0  0  0  0  0  0  0  0  0  0  0  0
  -10.0876    4.4171    4.9076 N   0  0  0  0  0  0  0  0  0  0  0  0
  -10.7277    4.1350    3.6222 C   0  0  0  0  0  0  0  0  0  0  0  0
  -12.2085    3.7868    3.8385 C   0  0  0  0  0  0  0  0  0  0  0  0
  -12.9107    3.4740    2.5566 C   0  0  0  0  0  0  0  0  0  0  0  0
  -13.3617    2.2291    2.6483 C   0  0  0  0  0  0  0  0  0  0  0  0
  -14.1189    1.4766    1.6162 C   0  0  0  0  0  0  0  0  0  0  0  0
  -14.4293    2.0424    0.3625 C   0  0  0  0  0  0  0  0  0  0  0  0
  -15.1426    1.3070   -0.5896 C   0  0  0  0  0  0  0  0  0  0  0  0
  -15.5541    0.0036   -0.3059 C   0  0  0  0  0  0  0  0  0  0  0  0
  -15.2528   -0.5687    0.9310 C   0  0  0  0  0  0  0  0  0  0  0  0
  -14.5399    0.1610    1.8871 C   0  0  0  0  0  0  0  0  0  0  0  0
  -13.0069    1.6830    3.9107 N   0  0  0  0  0  0  0  0  0  0  0  0
  -12.3617    2.5433    4.5857 N   0  0  0  0  0  0  0  0  0  0  0  0
   -9.7845    2.7524    2.8046 S   0  0  0  0  0  0  0  0  0  0  0  0
  1  3  4  0
  1 14  4  0
  1  2  1  0
  3  4  4  0
  4  5  4  0
  5  6  4  0
  5 22  1  0
  6  7  1  0
  6 14  4  0
  7  8  1  0
  8  9  4  0
  8 12  4  0
  9 10  4  0
 10 11  4  0
 11 12  4  0
 12 13  1  0
 13 14  1  0
 13 15  1  6
 15 16  4  0
 15 20  4  0
 16 17  4  0
 17 18  4  0
 17 21  1  0
 18 19  4  0
 19 20  4  0
 23 24  4  0
 24 25  4  0
 25 26  4  0
 26 27  1  0
 27 28  1  0
 28 29  1  0
 29 30  1  0
 30 31  2  0
 31 32  1  0
 32 33  4  0
 33 34  4  0
 34 35  4  0
 35 36  4  0
 36 37  4  0
 31 38  1  0
 38 39  2  0
 28 40  1  0
 39 29  1  0
 40 25  1  0
 37 32  4  0
  2 23  4  0
  2 26  4  0
M  END
$$$$

     RDKit          3D

 41 46  0  0  0  0  0  0  0  0999 V2000
   -7.6410    4.9930    6.8080 C   0  0  0  0  0  0  0  0  0  1  0  0
   -7.7310    4.0530    5.7140 C   0  0  0  0  0  0  0  0  0  2  0  0
   -6.4520    5.6300    6.8680 N   0  0  0  0  0  0  0  0  0  0  0  0
   -6.2260    6.5240    7.8670 N   0  0  0  0  0  0  0  0  0  0  0  0
   -7.1930    6.7500    8.7820 C   0  0  0  0  0  0  0  0  0  0  0  0
   -8.4240    6.1170    8.7580 C   0  0  0  0  0  0  0  0  0  0  0  0
   -9.3950    6.3570    9.7450 N   0  0  0  0  0  0  0  0  0  0  0  0
  -10.5620    5.6840    9.7600 C   0  0  0  0  0  0  0  0  0  0  0  0
  -11.5770    5.6820   10.5960 N   0  0  0  0  0  0  0  0  0  0  0  0
  -12.4690    4.7490   10.1080 N   0  0  0  0  0  0  0  0  0  0  0  0
  -12.0160    4.1880    8.9920 N   0  0  0  0  0  0  0  0  0  0  0  0
  -10.8400    4.7900    8.7610 N   0  0  0  0  0  0  0  0  0  0  0  0
   -9.9950    4.4790    7.6090 C   0  0  0  0  0  0  0  0  0  0  0  0
   -8.6630    5.2070    7.7200 C   0  0  0  0  0  0  0  0  0  0  0  0
  -10.7490    4.8610    6.3730 C   0  0  0  0  0  0  0  0  0  0  0  0
  -11.0350    6.2020    6.1170 C   0  0  0  0  0  0  0  0  0  0  0  0
  -11.7370    6.5580    4.9650 C   0  0  0  0  0  0  0  0  0  0  0  0
  -12.1550    5.5730    4.0710 C   0  0  0  0  0  0  0  0  0  0  0  0
  -11.8700    4.2310    4.3270 C   0  0  0  0  0  0  0  0  0  0  0  0
  -11.1660    3.8760    5.4790 C   0  0  0  0  0  0  0  0  0  0  0  0
  -12.0160    7.8660    4.7150 O   0  0  0  0  0  0  0  0  0  0  0  0
   -6.8990    7.6510    9.7710 O   0  0  0  0  0  0  0  0  0  0  0  0
   -6.8513    3.0786    5.3854 N   0  0  0  0  0  0  0  0  0  0  0  0
   -7.3068    2.3956    4.3422 N   0  0  0  0  0  0  0  0  0  0  0  0
   -8.5032    2.9234    4.0194 C   0  0  0  0  0  0  0  0  0  0  0  0
   -9.4909    2.3758    2.6247 S   0  0  0  0  0  0  0  0  0  0  0  0
   -8.7698    3.5790    1.4487 C   0  0  0  0  0  0  0  0  0  0  0  0
   -9.5941    3.5991    0.1632 C   0  0  0  0  0  0  0  0  0  0  0  0
   -7.3339    3.2389    1.1500 C   0  0  0  0  0  0  0  0  0  0  0  0
   -6.4339    4.0713    1.4453 O   0  0  0  0  0  0  0  0  0  0  0  0
   -6.9886    1.9659    0.5773 N   0  0  0  0  0  0  0  0  0  0  0  0
   -5.6765    1.6325    0.0940 C   0  0  0  0  0  0  0  0  0  0  0  0
   -5.2104    0.3154    0.2238 C   0  0  0  0  0  0  0  0  0  0  0  0
   -3.9466   -0.0389   -0.2563 C   0  0  0  0  0  0  0  0  0  0  0  0
   -3.1421    0.9152   -0.8841 C   0  0  0  0  0  0  0  0  0  0  0  0
   -3.6048    2.2270   -1.0414 C   0  0  0  0  0  0  0  0  0  0  0  0
   -2.7839    3.2054   -1.7060 C   0  0  0  0  0  0  0  0  0  0  0  0
   -2.1243    3.9919   -2.2401 N   0  0  0  0  0  0  0  0  0  0  0  0
   -4.8718    2.5841   -0.5601 C   0  0  0  0  0  0  0  0  0  0  0  0
   -8.8266    3.9314    4.8457 N   0  0  0  0  0  0  0  0  0  0  0  0
   -9.9092    4.8178    4.7214 N   0  0  0  0  0  0  0  0  0  0  0  0
  1  3  4  0
  1 14  4  0
  1  2  1  0
  3  4  4  0
  4  5  4  0
  5  6  4  0
  5 22  1  0
  6  7  1  0
  6 14  4  0
  7  8  1  0
  8  9  4  0
  8 12  4  0
  9 10  4  0
 10 11  4  0
 11 12  4  0
 12 13  1  0
 13 14  1  0
 13 15  1  6
 15 16  4  0
 15 20  4  0
 16 17  4  0
 17 18  4  0
 17 21  1  0
 18 19  4  0
 19 20  4  0
 23 24  4  0
 24 25  4  0
 25 26  1  0
 26 27  1  0
 27 28  1  0
 27 29  1  0
 29 30  2  0
 29 31  1  0
 31 32  1  0
 32 33  4  0
 33 34  4  0
 34 35  4  0
 35 36  4  0
 36 37  1  0
 37 38  3  0
 36 39  4  0
 25 40  4  0
 40 41  1  0
 39 32  4  0
  2 23  4  0
  2 40  4  0
M  END
$$$$

     RDKit          3D

 37 43  0  0  0  0  0  0  0  0999 V2000
   -7.6410    4.9930    6.8080 C   0  0  0  0  0  0  0  0  0  1  0  0
   -7.7310    4.0530    5.7140 C   0  0  0  0  0  0  0  0  0  2  0  0
   -6.4520    5.6300    6.8680 N   0  0  0  0  0  0  0  0  0  0  0  0
   -6.2260    6.5240    7.8670 N   0  0  0  0  0  0  0  0  0  0  0  0
   -7.1930    6.7500    8.7820 C   0  0  0  0  0  0  0  0  0  0  0  0
   -8.4240    6.1170    8.7580 C   0  0  0  0  0  0  0  0  0  0  0  0
   -9.3950    6.3570    9.7450 N   0  0  0  0  0  0  0  0  0  0  0  0
  -10.5620    5.6840    9.7600 C   0  0  0  0  0  0  0  0  0  0  0  0
  -11.5770    5.6820   10.5960 N   0  0  0  0  0  0  0  0  0  0  0  0
  -12.4690    4.7490   10.1080 N   0  0  0  0  0  0  0  0  0  0  0  0
  -12.0160    4.1880    8.9920 N   0  0  0  0  0  0  0  0  0  0  0  0
  -10.8400    4.7900    8.7610 N   0  0  0  0  0  0  0  0  0  0  0  0
   -9.9950    4.4790    7.6090 C   0  0  0  0  0  0  0  0  0  0  0  0
   -8.6630    5.2070    7.7200 C   0  0  0  0  0  0  0  0  0  0  0  0
  -10.7490    4.8610    6.3730 C   0  0  0  0  0  0  0  0  0  0  0  0
  -11.0350    6.2020    6.1170 C   0  0  0  0  0  0  0  0  0  0  0  0
  -11.7370    6.5580    4.9650 C   0  0  0  0  0  0  0  0  0  0  0  0
  -12.1550    5.5730    4.0710 C   0  0  0  0  0  0  0  0  0  0  0  0
  -11.8700    4.2310    4.3270 C   0  0  0  0  0  0  0  0  0  0  0  0
  -11.1660    3.8760    5.4790 C   0  0  0  0  0  0  0  0  0  0  0  0
  -12.0160    7.8660    4.7150 O   0  0  0  0  0  0  0  0  0  0  0  0
   -6.8990    7.6510    9.7710 O   0  0  0  0  0  0  0  0  0  0  0  0
   -7.0616    2.8124    5.7321 C   0  0  0  0  0  0  0  0  0  0  0  0
   -7.2590    1.8297    4.7477 C   0  0  0  0  0  0  0  0  0  1  0  0
   -6.5152    0.5443    4.7696 C   0  0  0  0  0  0  0  0  0  2  0  0
   -5.2142    0.4571    5.3050 C   0  0  0  0  0  0  0  0  0  0  0  0
   -4.5298   -0.7624    5.3088 C   0  0  0  0  0  0  0  0  0  0  0  0
   -5.1291   -1.9050    4.7752 C   0  0  0  0  0  0  0  0  0  0  0  0
   -6.4127   -1.8300    4.2311 C   0  0  0  0  0  0  0  0  0  0  0  0
   -7.1018   -0.6135    4.2235 C   0  0  0  0  0  0  0  0  0  0  0  0
   -8.1718    2.0521    3.7631 N   0  0  0  0  0  0  0  0  0  0  0  0
   -8.8898    3.2021    3.6782 C   0  0  0  0  0  0  0  0  0  0  0  0
   -9.7983    3.3753    2.6279 C   0  0  0  0  0  0  0  0  0  0  0  0
  -10.5237    4.5635    2.5166 C   0  0  0  0  0  0  0  0  0  0  0  0
  -10.3409    5.5863    3.4497 C   0  0  0  0  0  0  0  0  0  0  0  0
   -9.4383    5.4242    4.5046 C   0  0  0  0  0  0  0  0  0  0  0  0
   -8.7116    4.2233    4.6411 C   0  0  0  0  0  0  0  0  0  0  0  0
  1  3  4  0
  1 14  4  0
  1  2  1  0
  3  4  4  0
  4  5  4  0
  5  6  4  0
  5 22  1  0
  6  7  1  0
  6 14  4  0
  7  8  1  0
  8  9  4  0
  8 12  4  0
  9 10  4  0
 10 11  4  0
 11 12  4  0
 12 13  1  0
 13 14  1  0
 13 15  1  6
 15 16  4  0
 15 20  4  0
 16 17  4  0
 17 18  4  0
 17 21  1  0
 18 19  4  0
 19 20  4  0
 23 24  4  0
 24 25  1  0
 25 26  4  0
 26 27  4  0
 27 28  4  0
 28 29  4  0
 29 30  4  0
 24 31  4  0
 31 32  4  0
 32 33  4  0
 33 34  4  0
 34 35  4  0
 35 36  4  0
 36 37  4  0
 30 25  4  0
 37 32  4  0
  2 23  4  0
  2 37  4  0
M  END
$$$$

     RDKit          3D

 42 48  0  0  0  0  0  0  0  0999 V2000
   -7.6410    4.9930    6.8080 C   0  0  0  0  0  0  0  0  0  1  0  0
   -7.7310    4.0530    5.7140 C   0  0  0  0  0  0  0  0  0  2  0  0
   -6.4520    5.6300    6.8680 N   0  0  0  0  0  0  0  0  0  0  0  0
   -6.2260    6.5240    7.8670 N   0  0  0  0  0  0  0  0  0  0  0  0
   -7.1930    6.7500    8.7820 C   0  0  0  0  0  0  0  0  0  0  0  0
   -8.4240    6.1170    8.7580 C   0  0  0  0  0  0  0  0  0  0  0  0
   -9.3950    6.3570    9.7450 N   0  0  0  0  0  0  0  0  0  0  0  0
  -10.5620    5.6840    9.7600 C   0  0  0  0  0  0  0  0  0  0  0  0
  -11.5770    5.6820   10.5960 N   0  0  0  0  0  0  0  0  0  0  0  0
  -12.4690    4.7490   10.1080 N   0  0  0  0  0  0  0  0  0  0  0  0
  -12.0160    4.1880    8.9920 N   0  0  0  0  0  0  0  0  0  0  0  0
  -10.8400    4.7900    8.7610 N   0  0  0  0  0  0  0  0  0  0  0  0
   -9.9950    4.4790    7.6090 C   0  0  0  0  0  0  0  0  0  0  0  0
   -8.6630    5.2070    7.7200 C   0  0  0  0  0  0  0  0  0  0  0  0
  -10.7490    4.8610    6.3730 C   0  0  0  0  0  0  0  0  0  0  0  0
  -11.0350    6.2020    6.1170 C   0  0  0  0  0  0  0  0  0  0  0  0
  -11.7370    6.5580    4.9650 C   0  0  0  0  0  0  0  0  0  0  0  0
  -12.1550    5.5730    4.0710 C   0  0  0  0  0  0  0  0  0  0  0  0
  -11.8700    4.2310    4.3270 C   0  0  0  0  0  0  0  0  0  0  0  0
  -11.1660    3.8760    5.4790 C   0  0  0  0  0  0  0  0  0  0  0  0
  -12.0160    7.8660    4.7150 O   0  0  0  0  0  0  0  0  0  0  0  0
   -6.8990    7.6510    9.7710 O   0  0  0  0  0  0  0  0  0  0  0  0
   -7.0272    2.8718    5.4400 C   0  0  0  0  0  0  0  0  0  0  0  0
   -5.8981    2.3335    6.2232 C   0  0  0  0  0  0  0  0  0  0  0  0
   -5.5954    2.8472    7.3332 O   0  0  0  0  0  0  0  0  0  0  0  0
   -5.1562    1.2100    5.7389 N   0  0  0  0  0  0  0  0  0  0  0  0
   -4.0602    0.7232    6.4724 N   0  0  0  0  0  0  0  0  0  0  0  0
   -3.4571   -0.4059    6.2380 C   0  0  0  0  0  0  0  0  0  0  0  0
   -3.9223   -1.4056    5.2598 C   0  0  0  0  0  0  0  0  0  0  0  0
   -5.2376   -1.7852    5.0056 C   0  0  0  0  0  0  0  0  0  0  0  0
   -5.3409   -2.8484    4.1004 C   0  0  0  0  0  0  0  0  0  0  0  0
   -4.1145   -3.3273    3.6597 C   0  0  0  0  0  0  0  0  0  0  0  0
   -2.9026   -2.4306    4.4035 S   0  0  0  0  0  0  0  0  0  0  0  0
   -7.5445    2.2607    4.3551 N   0  0  0  0  0  0  0  0  0  0  0  0
   -8.5766    2.9875    3.9518 N   0  0  0  0  0  0  0  0  0  0  0  0
   -8.7490    4.0359    4.7412 N   0  0  0  0  0  0  0  0  0  0  0  0
   -9.7340    5.0576    4.5160 C   0  0  0  0  0  0  0  0  0  0  0  0
   -9.6393    6.3214    4.9646 N   0  0  0  0  0  0  0  0  0  0  0  0
  -10.6937    6.9364    4.5016 O   0  0  0  0  0  0  0  0  0  0  0  0
  -11.4736    6.1797    3.7784 N   0  0  0  0  0  0  0  0  0  0  0  0
  -10.8826    4.9743    3.7646 C   0  0  0  0  0  0  0  0  0  0  0  0
  -11.4264    3.8258    3.1142 N   0  0  0  0  0  0  0  0  0  0  0  0
  1  3  4  0
  1 14  4  0
  1  2  1  0
  3  4  4  0
  4  5  4  0
  5  6  4  0
  5 22  1  0
  6  7  1  0
  6 14  4  0
  7  8  1  0
  8  9  4  0
  8 12  4  0
  9 10  4  0
 10 11  4  0
 11 12  4  0
 12 13  1  0
 13 14  1  0
 13 15  1  6
 15 16  4  0
 15 20  4  0
 16 17  4  0
 17 18  4  0
 17 21  1  0
 18 19  4  0
 19 20  4  0
 23 24  1  0
 24 25  2  0
 24 26  1  0
 26 27  1  0
 27 28  2  3
 28 29  1  0
 29 30  4  0
 30 31  4  0
 31 32  4  0
 32 33  4  0
 23 34  4  0
 34 35  4  0
 35 36  4  0
 36 37  1  0
 37 38  4  0
 38 39  4  0
 39 40  4  0
 40 41  4  0
 41 42  1  0
 41 37  4  0
 33 29  4  0
  2 23  4  0
  2 36  4  0
M  END
$$$$

     RDKit          3D

 42 49  0  0  0  0  0  0  0  0999 V2000
   -7.6410    4.9930    6.8080 C   0  0  0  0  0  0  0  0  0  1  0  0
   -7.7310    4.0530    5.7140 C   0  0  0  0  0  0  0  0  0  2  0  0
   -6.4520    5.6300    6.8680 N   0  0  0  0  0  0  0  0  0  0  0  0
   -6.2260    6.5240    7.8670 N   0  0  0  0  0  0  0  0  0  0  0  0
   -7.1930    6.7500    8.7820 C   0  0  0  0  0  0  0  0  0  0  0  0
   -8.4240    6.1170    8.7580 C   0  0  0  0  0  0  0  0  0  0  0  0
   -9.3950    6.3570    9.7450 N   0  0  0  0  0  0  0  0  0  0  0  0
  -10.5620    5.6840    9.7600 C   0  0  0  0  0  0  0  0  0  0  0  0
  -11.5770    5.6820   10.5960 N   0  0  0  0  0  0  0  0  0  0  0  0
  -12.4690    4.7490   10.1080 N   0  0  0  0  0  0  0  0  0  0  0  0
  -12.0160    4.1880    8.9920 N   0  0  0  0  0  0  0  0  0  0  0  0
  -10.8400    4.7900    8.7610 N   0  0  0  0  0  0  0  0  0  0  0  0
   -9.9950    4.4790    7.6090 C   0  0  0  0  0  0  0  0  0  0  0  0
   -8.6630    5.2070    7.7200 C   0  0  0  0  0  0  0  0  0  0  0  0
  -10.7490    4.8610    6.3730 C   0  0  0  0  0  0  0  0  0  0  0  0
  -11.0350    6.2020    6.1170 C   0  0  0  0  0  0  0  0  0  0  0  0
  -11.7370    6.5580    4.9650 C   0  0  0  0  0  0  0  0  0  0  0  0
  -12.1550    5.5730    4.0710 C   0  0  0  0  0  0  0  0  0  0  0  0
  -11.8700    4.2310    4.3270 C   0  0  0  0  0  0  0  0  0  0  0  0
  -11.1660    3.8760    5.4790 C   0  0  0  0  0  0  0  0  0  0  0  0
  -12.0160    7.8660    4.7150 O   0  0  0  0  0  0  0  0  0  0  0  0
   -6.8990    7.6510    9.7710 O   0  0  0  0  0  0  0  0  0  0  0  0
   -6.8621    3.0637    5.4116 N   0  0  0  0  0  0  0  0  0  0  0  0
   -7.2930    2.3977    4.3513 N   0  0  0  0  0  0  0  0  0  0  0  0
   -8.4650    2.9516    3.9915 C   0  0  0  0  0  0  0  0  0  0  0  0
   -9.4133    2.3992    2.5724 S   0  0  0  0  0  0  0  0  0  0  0  0
  -10.4071    1.2317    3.5533 C   0  0  0  0  0  0  0  0  0  0  0  0
  -11.3792    0.5308    2.6570 C   0  0  0  0  0  0  0  0  0  0  0  0
  -12.4148    1.1371    2.0467 N   0  0  0  0  0  0  0  0  0  0  0  0
  -13.0410    0.1707    1.3872 N   0  0  0  0  0  0  0  0  0  0  0  0
  -12.4235   -0.9858    1.5798 N   0  0  0  0  0  0  0  0  0  0  0  0
  -11.3757   -0.7809    2.3577 N   0  0  0  0  0  0  0  0  0  0  0  0
  -10.4838   -1.8263    2.8542 C   0  0  0  0  0  0  0  0  0  0  0  0
   -9.9912   -2.7818    1.7788 C   0  0  0  0  0  0  0  0  0  0  0  0
   -9.0614   -1.7133    2.3295 C   0  0  0  0  0  0  0  0  0  0  0  0
   -8.8103    3.9678    4.8093 N   0  0  0  0  0  0  0  0  0  0  0  0
   -9.9253    4.9102    4.6466 C   0  0  0  0  0  0  0  0  0  0  0  0
   -9.4340    6.2722    4.1338 C   0  0  0  0  0  0  0  0  0  0  0  0
   -8.7677    6.1774    2.7716 C   0  0  0  0  0  0  0  0  0  0  0  0
   -9.0353    7.5291    2.1890 C   0  0  0  0  0  0  0  0  0  0  0  0
  -10.3109    7.9620    2.8893 C   0  0  0  0  0  0  0  0  0  0  0  0
  -10.5201    7.1642    4.0343 O   0  0  0  0  0  0  0  0  0  0  0  0
  1  3  4  0
  1 14  4  0
  1  2  1  0
  3  4  4  0
  4  5  4  0
  5  6  4  0
  5 22  1  0
  6  7  1  0
  6 14  4  0
  7  8  1  0
  8  9  4  0
  8 12  4  0
  9 10  4  0
 10 11  4  0
 11 12  4  0
 12 13  1  0
 13 14  1  0
 13 15  1  6
 15 16  4  0
 15 20  4  0
 16 17  4  0
 17 18  4  0
 17 21  1  0
 18 19  4  0
 19 20  4  0
 23 24  4  0
 24 25  4  0
 25 26  1  0
 26 27  1  0
 27 28  1  0
 28 29  4  0
 29 30  4  0
 30 31  4  0
 31 32  4  0
 32 33  1  0
 33 34  1  0
 34 35  1  0
 25 36  4  0
 36 37  1  0
 37 38  1  0
 38 39  1  0
 39 40  1  0
 40 41  1  0
 41 42  1  0
 42 38  1  0
 32 28  4  0
 35 33  1  0
  2 23  4  0
  2 36  4  0
M  END
$$$$

     RDKit          3D

 42 49  0  0  0  0  0  0  0  0999 V2000
   -7.6410    4.9930    6.8080 C   0  0  0  0  0  0  0  0  0  1  0  0
   -7.7310    4.0530    5.7140 C   0  0  0  0  0  0  0  0  0  2  0  0
   -6.4520    5.6300    6.8680 N   0  0  0  0  0  0  0  0  0  0  0  0
   -6.2260    6.5240    7.8670 N   0  0  0  0  0  0  0  0  0  0  0  0
   -7.1930    6.7500    8.7820 C   0  0  0  0  0  0  0  0  0  0  0  0
   -8.4240    6.1170    8.7580 C   0  0  0  0  0  0  0  0  0  0  0  0
   -9.3950    6.3570    9.7450 N   0  0  0  0  0  0  0  0  0  0  0  0
  -10.5620    5.6840    9.7600 C   0  0  0  0  0  0  0  0  0  0  0  0
  -11.5770    5.6820   10.5960 N   0  0  0  0  0  0  0  0  0  0  0  0
  -12.4690    4.7490   10.1080 N   0  0  0  0  0  0  0  0  0  0  0  0
  -12.0160    4.1880    8.9920 N   0  0  0  0  0  0  0  0  0  0  0  0
  -10.8400    4.7900    8.7610 N   0  0  0  0  0  0  0  0  0  0  0  0
   -9.9950    4.4790    7.6090 C   0  0  0  0  0  0  0  0  0  0  0  0
   -8.6630    5.2070    7.7200 C   0  0  0  0  0  0  0  0  0  0  0  0
  -10.7490    4.8610    6.3730 C   0  0  0  0  0  0  0  0  0  0  0  0
  -11.0350    6.2020    6.1170 C   0  0  0  0  0  0  0  0  0  0  0  0
  -11.7370    6.5580    4.9650 C   0  0  0  0  0  0  0  0  0  0  0  0
  -12.1550    5.5730    4.0710 C   0  0  0  0  0  0  0  0  0  0  0  0
  -11.8700    4.2310    4.3270 C   0  0  0  0  0  0  0  0  0  0  0  0
  -11.1660    3.8760    5.4790 C   0  0  0  0  0  0  0  0  0  0  0  0
  -12.0160    7.8660    4.7150 O   0  0  0  0  0  0  0  0  0  0  0  0
   -6.8990    7.6510    9.7710 O   0  0  0  0  0  0  0  0  0  0  0  0
   -6.8704    3.0536    5.4184 N   0  0  0  0  0  0  0  0  0  0  0  0
   -7.2911    2.4046    4.3431 N   0  0  0  0  0  0  0  0  0  0  0  0
   -8.4492    2.9782    3.9694 C   0  0  0  0  0  0  0  0  0  0  0  0
   -9.3635    2.4867    2.5066 S   0  0  0  0  0  0  0  0  0  0  0  0
  -10.4019    1.2967    3.4209 C   0  0  0  0  0  0  0  0  0  0  0  0
  -11.4123    0.6400    2.5260 C   0  0  0  0  0  0  0  0  0  0  0  0
  -11.5565    0.8777    1.2074 N   0  0  0  0  0  0  0  0  0  0  0  0
  -12.5262    0.0627    0.8120 N   0  0  0  0  0  0  0  0  0  0  0  0
  -12.9650   -0.6527    1.8372 N   0  0  0  0  0  0  0  0  0  0  0  0
  -12.2944   -0.2960    2.9179 N   0  0  0  0  0  0  0  0  0  0  0  0
  -12.4210   -0.9221    4.2317 C   0  0  0  0  0  0  0  0  0  0  0  0
  -13.8569   -1.1177    4.6924 C   0  0  0  0  0  0  0  0  0  0  0  0
  -13.0125   -0.0028    5.2877 C   0  0  0  0  0  0  0  0  0  0  0  0
   -8.7984    3.9853    4.7953 N   0  0  0  0  0  0  0  0  0  0  0  0
   -9.8721    4.9643    4.5928 C   0  0  0  0  0  0  0  0  0  0  0  0
   -9.3926    6.1173    3.6996 C   0  0  0  0  0  0  0  0  0  0  0  0
  -10.5111    7.1171    3.4148 C   0  0  0  0  0  0  0  0  0  0  0  0
   -9.8235    8.4418    3.5327 C   0  0  0  0  0  0  0  0  0  0  0  0
   -8.6756    8.1377    4.4671 C   0  0  0  0  0  0  0  0  0  0  0  0
   -8.3095    6.7876    4.3105 O   0  0  0  0  0  0  0  0  0  0  0  0
  1  3  4  0
  1 14  4  0
  1  2  1  0
  3  4  4  0
  4  5  4  0
  5  6  4  0
  5 22  1  0
  6  7  1  0
  6 14  4  0
  7  8  1  0
  8  9  4  0
  8 12  4  0
  9 10  4  0
 10 11  4  0
 11 12  4  0
 12 13  1  0
 13 14  1  0
 13 15  1  6
 15 16  4  0
 15 20  4  0
 16 17  4  0
 17 18  4  0
 17 21  1  0
 18 19  4  0
 19 20  4  0
 23 24  4  0
 24 25  4  0
 25 26  1  0
 26 27  1  0
 27 28  1  0
 28 29  4  0
 29 30  4  0
 30 31  4  0
 31 32  4  0
 32 33  1  0
 33 34  1  0
 34 35  1  0
 25 36  4  0
 36 37  1  0
 37 38  1  0
 38 39  1  0
 39 40  1  0
 40 41  1  0
 41 42  1  0
 42 38  1  0
 32 28  4  0
 35 33  1  0
  2 23  4  0
  2 36  4  0
M  END
$$$$

     RDKit          3D

 42 49  0  0  0  0  0  0  0  0999 V2000
   -7.6410    4.9930    6.8080 C   0  0  0  0  0  0  0  0  0  1  0  0
   -7.7310    4.0530    5.7140 C   0  0  0  0  0  0  0  0  0  2  0  0
   -6.4520    5.6300    6.8680 N   0  0  0  0  0  0  0  0  0  0  0  0
   -6.2260    6.5240    7.8670 N   0  0  0  0  0  0  0  0  0  0  0  0
   -7.1930    6.7500    8.7820 C   0  0  0  0  0  0  0  0  0  0  0  0
   -8.4240    6.1170    8.7580 C   0  0  0  0  0  0  0  0  0  0  0  0
   -9.3950    6.3570    9.7450 N   0  0  0  0  0  0  0  0  0  0  0  0
  -10.5620    5.6840    9.7600 C   0  0  0  0  0  0  0  0  0  0  0  0
  -11.5770    5.6820   10.5960 N   0  0  0  0  0  0  0  0  0  0  0  0
  -12.4690    4.7490   10.1080 N   0  0  0  0  0  0  0  0  0  0  0  0
  -12.0160    4.1880    8.9920 N   0  0  0  0  0  0  0  0  0  0  0  0
  -10.8400    4.7900    8.7610 N   0  0  0  0  0  0  0  0  0  0  0  0
   -9.9950    4.4790    7.6090 C   0  0  0  0  0  0  0  0  0  0  0  0
   -8.6630    5.2070    7.7200 C   0  0  0  0  0  0  0  0  0  0  0  0
  -10.7490    4.8610    6.3730 C   0  0  0  0  0  0  0  0  0  0  0  0
  -11.0350    6.2020    6.1170 C   0  0  0  0  0  0  0  0  0  0  0  0
  -11.7370    6.5580    4.9650 C   0  0  0  0  0  0  0  0  0  0  0  0
  -12.1550    5.5730    4.0710 C   0  0  0  0  0  0  0  0  0  0  0  0
  -11.8700    4.2310    4.3270 C   0  0  0  0  0  0  0  0  0  0  0  0
  -11.1660    3.8760    5.4790 C   0  0  0  0  0  0  0  0  0  0  0  0
  -12.0160    7.8660    4.7150 O   0  0  0  0  0  0  0  0  0  0  0  0
   -6.8990    7.6510    9.7710 O   0  0  0  0  0  0  0  0  0  0  0  0
   -6.8636    3.0629    5.4097 N   0  0  0  0  0  0  0  0  0  0  0  0
   -7.2877    2.4107    4.3380 N   0  0  0  0  0  0  0  0  0  0  0  0
   -8.4560    2.9711    3.9760 C   0  0  0  0  0  0  0  0  0  0  0  0
   -9.3730    2.4757    2.5132 S   0  0  0  0  0  0  0  0  0  0  0  0
  -10.5065    1.3595    3.4068 C   0  0  0  0  0  0  0  0  0  0  0  0
   -9.8643    0.0227    3.6253 C   0  0  0  0  0  0  0  0  0  0  0  0
   -8.9007   -0.2147    4.5348 N   0  0  0  0  0  0  0  0  0  0  0  0
   -8.6522   -1.5149    4.4452 N   0  0  0  0  0  0  0  0  0  0  0  0
   -9.4298   -2.0640    3.5236 N   0  0  0  0  0  0  0  0  0  0  0  0
  -10.1847   -1.1199    2.9909 N   0  0  0  0  0  0  0  0  0  0  0  0
  -11.2255   -1.3450    1.9907 C   0  0  0  0  0  0  0  0  0  0  0  0
  -10.9265   -0.7015    0.6463 C   0  0  0  0  0  0  0  0  0  0  0  0
  -10.7813   -2.2046    0.8177 C   0  0  0  0  0  0  0  0  0  0  0  0
   -8.8054    3.9769    4.8041 N   0  0  0  0  0  0  0  0  0  0  0  0
   -9.8877    4.9493    4.6158 C   0  0  0  0  0  0  0  0  0  0  0  0
   -9.3652    6.2086    3.9115 C   0  0  0  0  0  0  0  0  0  0  0  0
  -10.4486    7.2665    3.7714 C   0  0  0  0  0  0  0  0  0  0  0  0
  -10.0730    7.9487    2.4947 C   0  0  0  0  0  0  0  0  0  0  0  0
   -9.3477    6.8608    1.7284 C   0  0  0  0  0  0  0  0  0  0  0  0
   -8.8770    5.8829    2.6284 O   0  0  0  0  0  0  0  0  0  0  0  0
  1  3  4  0
  1 14  4  0
  1  2  1  0
  3  4  4  0
  4  5  4  0
  5  6  4  0
  5 22  1  0
  6  7  1  0
  6 14  4  0
  7  8  1  0
  8  9  4  0
  8 12  4  0
  9 10  4  0
 10 11  4  0
 11 12  4  0
 12 13  1  0
 13 14  1  0
 13 15  1  6
 15 16  4  0
 15 20  4  0
 16 17  4  0
 17 18  4  0
 17 21  1  0
 18 19  4  0
 19 20  4  0
 23 24  4  0
 24 25  4  0
 25 26  1  0
 26 27  1  0
 27 28  1  0
 28 29  4  0
 29 30  4  0
 30 31  4  0
 31 32  4  0
 32 33  1  0
 33 34  1  0
 34 35  1  0
 25 36  4  0
 36 37  1  0
 37 38  1  0
 38 39  1  0
 39 40  1  0
 40 41  1  0
 41 42  1  0
 42 38  1  0
 32 28  4  0
 35 33  1  0
  2 23  4  0
  2 36  4  0
M  END
$$$$

     RDKit          3D

 42 49  0  0  0  0  0  0  0  0999 V2000
   -7.6410    4.9930    6.8080 C   0  0  0  0  0  0  0  0  0  1  0  0
   -7.7310    4.0530    5.7140 C   0  0  0  0  0  0  0  0  0  2  0  0
   -6.4520    5.6300    6.8680 N   0  0  0  0  0  0  0  0  0  0  0  0
   -6.2260    6.5240    7.8670 N   0  0  0  0  0  0  0  0  0  0  0  0
   -7.1930    6.7500    8.7820 C   0  0  0  0  0  0  0  0  0  0  0  0
   -8.4240    6.1170    8.7580 C   0  0  0  0  0  0  0  0  0  0  0  0
   -9.3950    6.3570    9.7450 N   0  0  0  0  0  0  0  0  0  0  0  0
  -10.5620    5.6840    9.7600 C   0  0  0  0  0  0  0  0  0  0  0  0
  -11.5770    5.6820   10.5960 N   0  0  0  0  0  0  0  0  0  0  0  0
  -12.4690    4.7490   10.1080 N   0  0  0  0  0  0  0  0  0  0  0  0
  -12.0160    4.1880    8.9920 N   0  0  0  0  0  0  0  0  0  0  0  0
  -10.8400    4.7900    8.7610 N   0  0  0  0  0  0  0  0  0  0  0  0
   -9.9950    4.4790    7.6090 C   0  0  0  0  0  0  0  0  0  0  0  0
   -8.6630    5.2070    7.7200 C   0  0  0  0  0  0  0  0  0  0  0  0
  -10.7490    4.8610    6.3730 C   0  0  0  0  0  0  0  0  0  0  0  0
  -11.0350    6.2020    6.1170 C   0  0  0  0  0  0  0  0  0  0  0  0
  -11.7370    6.5580    4.9650 C   0  0  0  0  0  0  0  0  0  0  0  0
  -12.1550    5.5730    4.0710 C   0  0  0  0  0  0  0  0  0  0  0  0
  -11.8700    4.2310    4.3270 C   0  0  0  0  0  0  0  0  0  0  0  0
  -11.1660    3.8760    5.4790 C   0  0  0  0  0  0  0  0  0  0  0  0
  -12.0160    7.8660    4.7150 O   0  0  0  0  0  0  0  0  0  0  0  0
   -6.8990    7.6510    9.7710 O   0  0  0  0  0  0  0  0  0  0  0  0
   -6.9028    3.0106    5.4696 N   0  0  0  0  0  0  0  0  0  0  0  0
   -7.3694    2.2934    4.4587 N   0  0  0  0  0  0  0  0  0  0  0  0
   -8.5232    2.8672    4.0722 C   0  0  0  0  0  0  0  0  0  0  0  0
   -9.5571    2.2064    2.7608 S   0  0  0  0  0  0  0  0  0  0  0  0
  -10.6225    1.2188    3.8763 C   0  0  0  0  0  0  0  0  0  0  0  0
  -12.0788    1.4590    3.5964 C   0  0  0  0  0  0  0  0  0  0  0  0
  -12.5645    2.3115    2.6716 N   0  0  0  0  0  0  0  0  0  0  0  0
  -13.8839    2.2605    2.8105 N   0  0  0  0  0  0  0  0  0  0  0  0
  -14.2057    1.4180    3.7814 N   0  0  0  0  0  0  0  0  0  0  0  0
  -13.0954    0.8955    4.2726 N   0  0  0  0  0  0  0  0  0  0  0  0
  -13.0252    0.0111    5.4333 C   0  0  0  0  0  0  0  0  0  0  0  0
  -12.5449   -1.3922    5.1001 C   0  0  0  0  0  0  0  0  0  0  0  0
  -14.0151   -1.1425    5.3955 C   0  0  0  0  0  0  0  0  0  0  0  0
   -8.8168    3.9542    4.8166 N   0  0  0  0  0  0  0  0  0  0  0  0
   -9.9437    4.8832    4.6407 C   0  0  0  0  0  0  0  0  0  0  0  0
   -9.6940    5.9078    3.5176 C   0  0  0  0  0  0  0  0  0  0  0  0
   -8.6056    6.9193    3.8476 C   0  0  0  0  0  0  0  0  0  0  0  0
   -8.0404    7.2352    2.4994 C   0  0  0  0  0  0  0  0  0  0  0  0
   -8.2945    5.9601    1.7218 C   0  0  0  0  0  0  0  0  0  0  0  0
   -9.3726    5.2632    2.3055 O   0  0  0  0  0  0  0  0  0  0  0  0
  1  3  4  0
  1 14  4  0
  1  2  1  0
  3  4  4  0
  4  5  4  0
  5  6  4  0
  5 22  1  0
  6  7  1  0
  6 14  4  0
  7  8  1  0
  8  9  4  0
  8 12  4  0
  9 10  4  0
 10 11  4  0
 11 12  4  0
 12 13  1  0
 13 14  1  0
 13 15  1  6
 15 16  4  0
 15 20  4  0
 16 17  4  0
 17 18  4  0
 17 21  1  0
 18 19  4  0
 19 20  4  0
 23 24  4  0
 24 25  4  0
 25 26  1  0
 26 27  1  0
 27 28  1  0
 28 29  4  0
 29 30  4  0
 30 31  4  0
 31 32  4  0
 32 33  1  0
 33 34  1  0
 34 35  1  0
 25 36  4  0
 36 37  1  0
 37 38  1  0
 38 39  1  0
 39 40  1  0
 40 41  1  0
 41 42  1  0
 42 38  1  0
 32 28  4  0
 35 33  1  0
  2 23  4  0
  2 36  4  0
M  END
$$$$

     RDKit          3D

 42 47  0  0  0  0  0  0  0  0999 V2000
   -7.6410    4.9930    6.8080 C   0  0  0  0  0  0  0  0  0  1  0  0
   -7.7310    4.0530    5.7140 C   0  0  0  0  0  0  0  0  0  2  0  0
   -6.4520    5.6300    6.8680 N   0  0  0  0  0  0  0  0  0  0  0  0
   -6.2260    6.5240    7.8670 N   0  0  0  0  0  0  0  0  0  0  0  0
   -7.1930    6.7500    8.7820 C   0  0  0  0  0  0  0  0  0  0  0  0
   -8.4240    6.1170    8.7580 C   0  0  0  0  0  0  0  0  0  0  0  0
   -9.3950    6.3570    9.7450 N   0  0  0  0  0  0  0  0  0  0  0  0
  -10.5620    5.6840    9.7600 C   0  0  0  0  0  0  0  0  0  0  0  0
  -11.5770    5.6820   10.5960 N   0  0  0  0  0  0  0  0  0  0  0  0
  -12.4690    4.7490   10.1080 N   0  0  0  0  0  0  0  0  0  0  0  0
  -12.0160    4.1880    8.9920 N   0  0  0  0  0  0  0  0  0  0  0  0
  -10.8400    4.7900    8.7610 N   0  0  0  0  0  0  0  0  0  0  0  0
   -9.9950    4.4790    7.6090 C   0  0  0  0  0  0  0  0  0  0  0  0
   -8.6630    5.2070    7.7200 C   0  0  0  0  0  0  0  0  0  0  0  0
  -10.7490    4.8610    6.3730 C   0  0  0  0  0  0  0  0  0  0  0  0
  -11.0350    6.2020    6.1170 C   0  0  0  0  0  0  0  0  0  0  0  0
  -11.7370    6.5580    4.9650 C   0  0  0  0  0  0  0  0  0  0  0  0
  -12.1550    5.5730    4.0710 C   0  0  0  0  0  0  0  0  0  0  0  0
  -11.8700    4.2310    4.3270 C   0  0  0  0  0  0  0  0  0  0  0  0
  -11.1660    3.8760    5.4790 C   0  0  0  0  0  0  0  0  0  0  0  0
  -12.0160    7.8660    4.7150 O   0  0  0  0  0  0  0  0  0  0  0  0
   -6.8990    7.6510    9.7710 O   0  0  0  0  0  0  0  0  0  0  0  0
   -6.8015    3.1725    5.2892 N   0  0  0  0  0  0  0  0  0  0  0  0
   -7.2854    2.4439    4.2910 N   0  0  0  0  0  0  0  0  0  0  0  0
   -8.5512    2.8535    4.0821 C   0  0  0  0  0  0  0  0  0  0  0  0
   -9.6267    2.1676    2.8172 S   0  0  0  0  0  0  0  0  0  0  0  0
   -9.0815    3.2251    1.4140 C   0  0  0  0  0  0  0  0  0  0  0  0
   -7.6251    2.9429    1.0280 C   0  0  0  0  0  0  0  0  0  0  0  0
   -9.3922    4.6856    1.6496 C   0  0  0  0  0  0  0  0  0  0  0  0
  -10.5781    5.0168    1.9187 O   0  0  0  0  0  0  0  0  0  0  0  0
   -8.4081    5.7159    1.4604 N   0  0  0  0  0  0  0  0  0  0  0  0
   -7.5130    6.0690    2.5611 C   0  0  0  0  0  0  0  0  0  0  0  0
   -8.5969    6.6690    0.3620 C   0  0  0  0  0  0  0  0  0  0  0  0
   -8.1793    6.0414   -0.9378 C   0  0  0  0  0  0  0  0  0  0  0  0
   -9.1417    5.5501   -1.8350 C   0  0  0  0  0  0  0  0  0  0  0  0
   -8.7439    4.9351   -3.0260 C   0  0  0  0  0  0  0  0  0  0  0  0
   -7.3845    4.8046   -3.3284 C   0  0  0  0  0  0  0  0  0  0  0  0
   -6.8437    3.9589   -4.9530 Br  0  0  0  0  0  0  0  0  0  0  0  0
   -6.4217    5.2896   -2.4375 C   0  0  0  0  0  0  0  0  0  0  0  0
   -6.8162    5.9045   -1.2456 C   0  0  0  0  0  0  0  0  0  0  0  0
   -8.8954    3.8195    4.9505 N   0  0  0  0  0  0  0  0  0  0  0  0
  -10.0983    4.5434    4.9841 N   0  0  0  0  0  0  0  0  0  0  0  0
  1  3  4  0
  1 14  4  0
  1  2  1  0
  3  4  4  0
  4  5  4  0
  5  6  4  0
  5 22  1  0
  6  7  1  0
  6 14  4  0
  7  8  1  0
  8  9  4  0
  8 12  4  0
  9 10  4  0
 10 11  4  0
 11 12  4  0
 12 13  1  0
 13 14  1  0
 13 15  1  6
 15 16  4  0
 15 20  4  0
 16 17  4  0
 17 18  4  0
 17 21  1  0
 18 19  4  0
 19 20  4  0
 23 24  4  0
 24 25  4  0
 25 26  1  0
 26 27  1  0
 27 28  1  0
 27 29  1  0
 29 30  2  0
 29 31  1  0
 31 32  1  0
 31 33  1  0
 33 34  1  0
 34 35  4  0
 35 36  4  0
 36 37  4  0
 37 38  1  0
 37 39  4  0
 39 40  4  0
 25 41  4  0
 41 42  1  0
 40 34  4  0
  2 23  4  0
  2 41  4  0
M  END
$$$$

     RDKit          3D

 42 47  0  0  0  0  0  0  0  0999 V2000
   -7.6410    4.9930    6.8080 C   0  0  0  0  0  0  0  0  0  1  0  0
   -7.7310    4.0530    5.7140 C   0  0  0  0  0  0  0  0  0  2  0  0
   -6.4520    5.6300    6.8680 N   0  0  0  0  0  0  0  0  0  0  0  0
   -6.2260    6.5240    7.8670 N   0  0  0  0  0  0  0  0  0  0  0  0
   -7.1930    6.7500    8.7820 C   0  0  0  0  0  0  0  0  0  0  0  0
   -8.4240    6.1170    8.7580 C   0  0  0  0  0  0  0  0  0  0  0  0
   -9.3950    6.3570    9.7450 N   0  0  0  0  0  0  0  0  0  0  0  0
  -10.5620    5.6840    9.7600 C   0  0  0  0  0  0  0  0  0  0  0  0
  -11.5770    5.6820   10.5960 N   0  0  0  0  0  0  0  0  0  0  0  0
  -12.4690    4.7490   10.1080 N   0  0  0  0  0  0  0  0  0  0  0  0
  -12.0160    4.1880    8.9920 N   0  0  0  0  0  0  0  0  0  0  0  0
  -10.8400    4.7900    8.7610 N   0  0  0  0  0  0  0  0  0  0  0  0
   -9.9950    4.4790    7.6090 C   0  0  0  0  0  0  0  0  0  0  0  0
   -8.6630    5.2070    7.7200 C   0  0  0  0  0  0  0  0  0  0  0  0
  -10.7490    4.8610    6.3730 C   0  0  0  0  0  0  0  0  0  0  0  0
  -11.0350    6.2020    6.1170 C   0  0  0  0  0  0  0  0  0  0  0  0
  -11.7370    6.5580    4.9650 C   0  0  0  0  0  0  0  0  0  0  0  0
  -12.1550    5.5730    4.0710 C   0  0  0  0  0  0  0  0  0  0  0  0
  -11.8700    4.2310    4.3270 C   0  0  0  0  0  0  0  0  0  0  0  0
  -11.1660    3.8760    5.4790 C   0  0  0  0  0  0  0  0  0  0  0  0
  -12.0160    7.8660    4.7150 O   0  0  0  0  0  0  0  0  0  0  0  0
   -6.8990    7.6510    9.7710 O   0  0  0  0  0  0  0  0  0  0  0  0
   -6.8109    3.1514    5.3085 N   0  0  0  0  0  0  0  0  0  0  0  0
   -7.2890    2.4388    4.2959 N   0  0  0  0  0  0  0  0  0  0  0  0
   -8.5438    2.8742    4.0654 C   0  0  0  0  0  0  0  0  0  0  0  0
   -9.5808    2.2649    2.7329 S   0  0  0  0  0  0  0  0  0  0  0  0
   -8.8357    3.3283    1.4390 C   0  0  0  0  0  0  0  0  0  0  0  0
   -9.2572    4.7940    1.5866 C   0  0  0  0  0  0  0  0  0  0  0  0
   -9.1425    2.7938    0.0581 C   0  0  0  0  0  0  0  0  0  0  0  0
   -8.2199    2.1942   -0.5616 O   0  0  0  0  0  0  0  0  0  0  0  0
  -10.3971    3.0351   -0.6173 N   0  0  0  0  0  0  0  0  0  0  0  0
  -11.6839    2.9516    0.0779 C   0  0  0  0  0  0  0  0  0  0  0  0
  -10.3737    3.5330   -2.0004 C   0  0  0  0  0  0  0  0  0  0  0  0
   -9.9765    2.4404   -2.9612 C   0  0  0  0  0  0  0  0  0  0  0  0
  -10.8029    1.3152   -3.1335 C   0  0  0  0  0  0  0  0  0  0  0  0
  -10.4379    0.3028   -4.0269 C   0  0  0  0  0  0  0  0  0  0  0  0
   -9.2465    0.4047   -4.7547 C   0  0  0  0  0  0  0  0  0  0  0  0
   -8.7398   -0.9896   -5.9620 Br  0  0  0  0  0  0  0  0  0  0  0  0
   -8.4227    1.5244   -4.5921 C   0  0  0  0  0  0  0  0  0  0  0  0
   -8.7863    2.5407   -3.7027 C   0  0  0  0  0  0  0  0  0  0  0  0
   -8.8847    3.8483    4.9267 N   0  0  0  0  0  0  0  0  0  0  0  0
  -10.0539    4.6263    4.9092 N   0  0  0  0  0  0  0  0  0  0  0  0
  1  3  4  0
  1 14  4  0
  1  2  1  0
  3  4  4  0
  4  5  4  0
  5  6  4  0
  5 22  1  0
  6  7  1  0
  6 14  4  0
  7  8  1  0
  8  9  4  0
  8 12  4  0
  9 10  4  0
 10 11  4  0
 11 12  4  0
 12 13  1  0
 13 14  1  0
 13 15  1  6
 15 16  4  0
 15 20  4  0
 16 17  4  0
 17 18  4  0
 17 21  1  0
 18 19  4  0
 19 20  4  0
 23 24  4  0
 24 25  4  0
 25 26  1  0
 26 27  1  0
 27 28  1  0
 27 29  1  0
 29 30  2  0
 29 31  1  0
 31 32  1  0
 31 33  1  0
 33 34  1  0
 34 35  4  0
 35 36  4  0
 36 37  4  0
 37 38  1  0
 37 39  4  0
 39 40  4  0
 25 41  4  0
 41 42  1  0
 40 34  4  0
  2 23  4  0
  2 41  4  0
M  END
$$$$

     RDKit          3D

 37 43  0  0  0  0  0  0  0  0999 V2000
   -7.6410    4.9930    6.8080 C   0  0  0  0  0  0  0  0  0  1  0  0
   -7.7310    4.0530    5.7140 C   0  0  0  0  0  0  0  0  0  2  0  0
   -6.4520    5.6300    6.8680 N   0  0  0  0  0  0  0  0  0  0  0  0
   -6.2260    6.5240    7.8670 N   0  0  0  0  0  0  0  0  0  0  0  0
   -7.1930    6.7500    8.7820 C   0  0  0  0  0  0  0  0  0  0  0  0
   -8.4240    6.1170    8.7580 C   0  0  0  0  0  0  0  0  0  0  0  0
   -9.3950    6.3570    9.7450 N   0  0  0  0  0  0  0  0  0  0  0  0
  -10.5620    5.6840    9.7600 C   0  0  0  0  0  0  0  0  0  0  0  0
  -11.5770    5.6820   10.5960 N   0  0  0  0  0  0  0  0  0  0  0  0
  -12.4690    4.7490   10.1080 N   0  0  0  0  0  0  0  0  0  0  0  0
  -12.0160    4.1880    8.9920 N   0  0  0  0  0  0  0  0  0  0  0  0
  -10.8400    4.7900    8.7610 N   0  0  0  0  0  0  0  0  0  0  0  0
   -9.9950    4.4790    7.6090 C   0  0  0  0  0  0  0  0  0  0  0  0
   -8.6630    5.2070    7.7200 C   0  0  0  0  0  0  0  0  0  0  0  0
  -10.7490    4.8610    6.3730 C   0  0  0  0  0  0  0  0  0  0  0  0
  -11.0350    6.2020    6.1170 C   0  0  0  0  0  0  0  0  0  0  0  0
  -11.7370    6.5580    4.9650 C   0  0  0  0  0  0  0  0  0  0  0  0
  -12.1550    5.5730    4.0710 C   0  0  0  0  0  0  0  0  0  0  0  0
  -11.8700    4.2310    4.3270 C   0  0  0  0  0  0  0  0  0  0  0  0
  -11.1660    3.8760    5.4790 C   0  0  0  0  0  0  0  0  0  0  0  0
  -12.0160    7.8660    4.7150 O   0  0  0  0  0  0  0  0  0  0  0  0
   -6.8990    7.6510    9.7710 O   0  0  0  0  0  0  0  0  0  0  0  0
   -6.8031    3.1557    5.3203 N   0  0  0  0  0  0  0  0  0  0  0  0
   -7.2642    2.4437    4.3026 N   0  0  0  0  0  0  0  0  0  0  0  0
   -8.5160    2.8729    4.0625 C   0  0  0  0  0  0  0  0  0  0  0  0
   -8.8700    3.8678    4.8968 N   0  0  0  0  0  0  0  0  0  0  0  0
  -10.1712    4.5398    4.9806 C   0  0  0  0  0  0  0  0  0  0  0  0
  -10.9290    4.4324    3.7185 N   0  0  0  0  0  0  0  0  0  0  0  0
  -10.3873    5.3332    2.6744 C   0  0  0  0  0  0  0  0  0  0  0  0
  -11.3307    5.4327    1.4601 C   0  0  0  0  0  0  0  0  0  0  0  0
  -10.9510    6.5436    0.5593 N   0  0  0  0  0  0  0  0  0  0  0  0
   -9.6616    6.3265   -0.1133 C   0  0  0  0  0  0  0  0  0  0  0  0
   -9.7184    7.0707   -1.4418 C   0  0  0  0  0  0  0  0  0  0  0  0
  -11.1887    7.3787   -1.6765 C   0  0  0  0  0  0  0  0  0  0  0  0
  -11.9266    6.7168   -0.5236 C   0  0  0  0  0  0  0  0  0  0  0  0
  -11.0679    3.0177    3.3051 C   0  0  0  0  0  0  0  0  0  0  0  0
   -9.5048    2.2967    2.6840 S   0  0  0  0  0  0  0  0  0  0  0  0
  1  3  4  0
  1 14  4  0
  1  2  1  0
  3  4  4  0
  4  5  4  0
  5  6  4  0
  5 22  1  0
  6  7  1  0
  6 14  4  0
  7  8  1  0
  8  9  4  0
  8 12  4  0
  9 10  4  0
 10 11  4  0
 11 12  4  0
 12 13  1  0
 13 14  1  0
 13 15  1  6
 15 16  4  0
 15 20  4  0
 16 17  4  0
 17 18  4  0
 17 21  1  0
 18 19  4  0
 19 20  4  0
 23 24  4  0
 24 25  4  0
 25 26  4  0
 26 27  1  0
 27 28  1  0
 28 29  1  0
 29 30  1  0
 30 31  1  0
 31 32  1  0
 32 33  1  0
 33 34  1  0
 34 35  1  0
 28 36  1  0
 36 37  1  0
 35 31  1  0
 37 25  1  0
  2 23  4  0
  2 26  4  0
M  CHG  1  31   1
M  END
$$$$

     RDKit          3D

 37 43  0  0  0  0  0  0  0  0999 V2000
   -7.6410    4.9930    6.8080 C   0  0  0  0  0  0  0  0  0  1  0  0
   -7.7310    4.0530    5.7140 C   0  0  0  0  0  0  0  0  0  2  0  0
   -6.4520    5.6300    6.8680 N   0  0  0  0  0  0  0  0  0  0  0  0
   -6.2260    6.5240    7.8670 N   0  0  0  0  0  0  0  0  0  0  0  0
   -7.1930    6.7500    8.7820 C   0  0  0  0  0  0  0  0  0  0  0  0
   -8.4240    6.1170    8.7580 C   0  0  0  0  0  0  0  0  0  0  0  0
   -9.3950    6.3570    9.7450 N   0  0  0  0  0  0  0  0  0  0  0  0
  -10.5620    5.6840    9.7600 C   0  0  0  0  0  0  0  0  0  0  0  0
  -11.5770    5.6820   10.5960 N   0  0  0  0  0  0  0  0  0  0  0  0
  -12.4690    4.7490   10.1080 N   0  0  0  0  0  0  0  0  0  0  0  0
  -12.0160    4.1880    8.9920 N   0  0  0  0  0  0  0  0  0  0  0  0
  -10.8400    4.7900    8.7610 N   0  0  0  0  0  0  0  0  0  0  0  0
   -9.9950    4.4790    7.6090 C   0  0  0  0  0  0  0  0  0  0  0  0
   -8.6630    5.2070    7.7200 C   0  0  0  0  0  0  0  0  0  0  0  0
  -10.7490    4.8610    6.3730 C   0  0  0  0  0  0  0  0  0  0  0  0
  -11.0350    6.2020    6.1170 C   0  0  0  0  0  0  0  0  0  0  0  0
  -11.7370    6.5580    4.9650 C   0  0  0  0  0  0  0  0  0  0  0  0
  -12.1550    5.5730    4.0710 C   0  0  0  0  0  0  0  0  0  0  0  0
  -11.8700    4.2310    4.3270 C   0  0  0  0  0  0  0  0  0  0  0  0
  -11.1660    3.8760    5.4790 C   0  0  0  0  0  0  0  0  0  0  0  0
  -12.0160    7.8660    4.7150 O   0  0  0  0  0  0  0  0  0  0  0  0
   -6.8990    7.6510    9.7710 O   0  0  0  0  0  0  0  0  0  0  0  0
   -6.8028    3.1566    5.3191 N   0  0  0  0  0  0  0  0  0  0  0  0
   -7.2605    2.4521    4.2947 N   0  0  0  0  0  0  0  0  0  0  0  0
   -8.5103    2.8856    4.0515 C   0  0  0  0  0  0  0  0  0  0  0  0
   -8.8672    3.8735    4.8920 N   0  0  0  0  0  0  0  0  0  0  0  0
  -10.1651    4.5520    4.9715 C   0  0  0  0  0  0  0  0  0  0  0  0
  -10.9366    4.4214    3.7191 N   0  0  0  0  0  0  0  0  0  0  0  0
  -10.4424    5.3044    2.6383 C   0  0  0  0  0  0  0  0  0  0  0  0
  -11.1149    6.6893    2.7098 C   0  0  0  0  0  0  0  0  0  0  0  0
  -12.5908    6.6176    2.5421 N   0  0  0  0  0  0  0  0  0  0  0  0
  -13.2401    7.8622    2.9848 C   0  0  0  0  0  0  0  0  0  0  0  0
  -13.3194    8.7836    1.7814 C   0  0  0  0  0  0  0  0  0  0  0  0
  -13.2978    7.8600    0.5783 C   0  0  0  0  0  0  0  0  0  0  0  0
  -12.9843    6.4711    1.1277 C   0  0  0  0  0  0  0  0  0  0  0  0
  -11.0633    3.0097    3.3048 C   0  0  0  0  0  0  0  0  0  0  0  0
   -9.4917    2.3264    2.6629 S   0  0  0  0  0  0  0  0  0  0  0  0
  1  3  4  0
  1 14  4  0
  1  2  1  0
  3  4  4  0
  4  5  4  0
  5  6  4  0
  5 22  1  0
  6  7  1  0
  6 14  4  0
  7  8  1  0
  8  9  4  0
  8 12  4  0
  9 10  4  0
 10 11  4  0
 11 12  4  0
 12 13  1  0
 13 14  1  0
 13 15  1  6
 15 16  4  0
 15 20  4  0
 16 17  4  0
 17 18  4  0
 17 21  1  0
 18 19  4  0
 19 20  4  0
 23 24  4  0
 24 25  4  0
 25 26  4  0
 26 27  1  0
 27 28  1  0
 28 29  1  0
 29 30  1  0
 30 31  1  0
 31 32  1  0
 32 33  1  0
 33 34  1  0
 34 35  1  0
 28 36  1  0
 36 37  1  0
 35 31  1  0
 37 25  1  0
  2 23  4  0
  2 26  4  0
M  CHG  1  31   1
M  END
$$$$

     RDKit          3D

 30 34  0  0  0  0  0  0  0  0999 V2000
   -7.6410    4.9930    6.8080 C   0  0  0  0  0  0  0  0  0  1  0  0
   -7.7310    4.0530    5.7140 C   0  0  0  0  0  0  0  0  0  2  0  0
   -6.4520    5.6300    6.8680 N   0  0  0  0  0  0  0  0  0  0  0  0
   -6.2260    6.5240    7.8670 N   0  0  0  0  0  0  0  0  0  0  0  0
   -7.1930    6.7500    8.7820 C   0  0  0  0  0  0  0  0  0  0  0  0
   -8.4240    6.1170    8.7580 C   0  0  0  0  0  0  0  0  0  0  0  0
   -9.3950    6.3570    9.7450 N   0  0  0  0  0  0  0  0  0  0  0  0
  -10.5620    5.6840    9.7600 C   0  0  0  0  0  0  0  0  0  0  0  0
  -11.5770    5.6820   10.5960 N   0  0  0  0  0  0  0  0  0  0  0  0
  -12.4690    4.7490   10.1080 N   0  0  0  0  0  0  0  0  0  0  0  0
  -12.0160    4.1880    8.9920 N   0  0  0  0  0  0  0  0  0  0  0  0
  -10.8400    4.7900    8.7610 N   0  0  0  0  0  0  0  0  0  0  0  0
   -9.9950    4.4790    7.6090 C   0  0  0  0  0  0  0  0  0  0  0  0
   -8.6630    5.2070    7.7200 C   0  0  0  0  0  0  0  0  0  0  0  0
  -10.7490    4.8610    6.3730 C   0  0  0  0  0  0  0  0  0  0  0  0
  -11.0350    6.2020    6.1170 C   0  0  0  0  0  0  0  0  0  0  0  0
  -11.7370    6.5580    4.9650 C   0  0  0  0  0  0  0  0  0  0  0  0
  -12.1550    5.5730    4.0710 C   0  0  0  0  0  0  0  0  0  0  0  0
  -11.8700    4.2310    4.3270 C   0  0  0  0  0  0  0  0  0  0  0  0
  -11.1660    3.8760    5.4790 C   0  0  0  0  0  0  0  0  0  0  0  0
  -12.0160    7.8660    4.7150 O   0  0  0  0  0  0  0  0  0  0  0  0
   -6.8990    7.6510    9.7710 O   0  0  0  0  0  0  0  0  0  0  0  0
   -6.9867    2.8512    5.5726 C   0  0  0  0  0  0  0  0  0  0  0  0
   -5.6812    2.5369    6.7128 Cl  0  0  0  0  0  0  0  0  0  0  0  0
   -7.2144    1.9157    4.5574 C   0  0  0  0  0  0  0  0  0  0  0  0
   -8.2608    2.0974    3.6516 C   0  0  0  0  0  0  0  0  0  0  0  0
   -8.5616    0.8137    2.2696 Br  0  0  0  0  0  0  0  0  0  0  0  0
   -9.0865    3.2180    3.7552 C   0  0  0  0  0  0  0  0  0  0  0  0
   -8.8736    4.1636    4.7643 C   0  0  0  0  0  0  0  0  0  0  0  0
   -9.9163    5.5829    4.8031 Cl  0  0  0  0  0  0  0  0  0  0  0  0
  1  3  4  0
  1 14  4  0
  1  2  1  0
  3  4  4  0
  4  5  4  0
  5  6  4  0
  5 22  1  0
  6  7  1  0
  6 14  4  0
  7  8  1  0
  8  9  4  0
  8 12  4  0
  9 10  4  0
 10 11  4  0
 11 12  4  0
 12 13  1  0
 13 14  1  0
 13 15  1  6
 15 16  4  0
 15 20  4  0
 16 17  4  0
 17 18  4  0
 17 21  1  0
 18 19  4  0
 19 20  4  0
 23 24  1  0
 23 25  4  0
 25 26  4  0
 26 27  1  0
 26 28  4  0
 28 29  4  0
 29 30  1  0
  2 23  4  0
  2 29  4  0
M  END
$$$$

     RDKit          3D

 30 34  0  0  0  0  0  0  0  0999 V2000
   -7.6410    4.9930    6.8080 C   0  0  0  0  0  0  0  0  0  1  0  0
   -7.7310    4.0530    5.7140 C   0  0  0  0  0  0  0  0  0  2  0  0
   -6.4520    5.6300    6.8680 N   0  0  0  0  0  0  0  0  0  0  0  0
   -6.2260    6.5240    7.8670 N   0  0  0  0  0  0  0  0  0  0  0  0
   -7.1930    6.7500    8.7820 C   0  0  0  0  0  0  0  0  0  0  0  0
   -8.4240    6.1170    8.7580 C   0  0  0  0  0  0  0  0  0  0  0  0
   -9.3950    6.3570    9.7450 N   0  0  0  0  0  0  0  0  0  0  0  0
  -10.5620    5.6840    9.7600 C   0  0  0  0  0  0  0  0  0  0  0  0
  -11.5770    5.6820   10.5960 N   0  0  0  0  0  0  0  0  0  0  0  0
  -12.4690    4.7490   10.1080 N   0  0  0  0  0  0  0  0  0  0  0  0
  -12.0160    4.1880    8.9920 N   0  0  0  0  0  0  0  0  0  0  0  0
  -10.8400    4.7900    8.7610 N   0  0  0  0  0  0  0  0  0  0  0  0
   -9.9950    4.4790    7.6090 C   0  0  0  0  0  0  0  0  0  0  0  0
   -8.6630    5.2070    7.7200 C   0  0  0  0  0  0  0  0  0  0  0  0
  -10.7490    4.8610    6.3730 C   0  0  0  0  0  0  0  0  0  0  0  0
  -11.0350    6.2020    6.1170 C   0  0  0  0  0  0  0  0  0  0  0  0
  -11.7370    6.5580    4.9650 C   0  0  0  0  0  0  0  0  0  0  0  0
  -12.1550    5.5730    4.0710 C   0  0  0  0  0  0  0  0  0  0  0  0
  -11.8700    4.2310    4.3270 C   0  0  0  0  0  0  0  0  0  0  0  0
  -11.1660    3.8760    5.4790 C   0  0  0  0  0  0  0  0  0  0  0  0
  -12.0160    7.8660    4.7150 O   0  0  0  0  0  0  0  0  0  0  0  0
   -6.8990    7.6510    9.7710 O   0  0  0  0  0  0  0  0  0  0  0  0
   -8.8783    4.1597    4.7688 C   0  0  0  0  0  0  0  0  0  0  0  0
   -9.9274    5.5739    4.8133 Cl  0  0  0  0  0  0  0  0  0  0  0  0
   -9.0914    3.2141    3.7596 C   0  0  0  0  0  0  0  0  0  0  0  0
   -8.2613    2.0971    3.6515 C   0  0  0  0  0  0  0  0  0  0  0  0
   -8.5623    0.8134    2.2696 Br  0  0  0  0  0  0  0  0  0  0  0  0
   -7.2107    1.9189    4.5530 C   0  0  0  0  0  0  0  0  0  0  0  0
   -6.9828    2.8543    5.5683 C   0  0  0  0  0  0  0  0  0  0  0  0
   -5.6721    2.5435    6.7036 Cl  0  0  0  0  0  0  0  0  0  0  0  0
  1  3  4  0
  1 14  4  0
  1  2  1  0
  3  4  4  0
  4  5  4  0
  5  6  4  0
  5 22  1  0
  6  7  1  0
  6 14  4  0
  7  8  1  0
  8  9  4  0
  8 12  4  0
  9 10  4  0
 10 11  4  0
 11 12  4  0
 12 13  1  0
 13 14  1  0
 13 15  1  6
 15 16  4  0
 15 20  4  0
 16 17  4  0
 17 18  4  0
 17 21  1  0
 18 19  4  0
 19 20  4  0
 23 24  1  0
 23 25  4  0
 25 26  4  0
 26 27  1  0
 26 28  4  0
 28 29  4  0
 29 30  1  0
  2 23  4  0
  2 29  4  0
M  END
$$$$

     RDKit          3D

 47 53  0  0  0  0  0  0  0  0999 V2000
   -7.6410    4.9930    6.8080 C   0  0  0  0  0  0  0  0  0  1  0  0
   -7.7310    4.0530    5.7140 C   0  0  0  0  0  0  0  0  0  2  0  0
   -6.4520    5.6300    6.8680 N   0  0  0  0  0  0  0  0  0  0  0  0
   -6.2260    6.5240    7.8670 N   0  0  0  0  0  0  0  0  0  0  0  0
   -7.1930    6.7500    8.7820 C   0  0  0  0  0  0  0  0  0  0  0  0
   -8.4240    6.1170    8.7580 C   0  0  0  0  0  0  0  0  0  0  0  0
   -9.3950    6.3570    9.7450 N   0  0  0  0  0  0  0  0  0  0  0  0
  -10.5620    5.6840    9.7600 C   0  0  0  0  0  0  0  0  0  0  0  0
  -11.5770    5.6820   10.5960 N   0  0  0  0  0  0  0  0  0  0  0  0
  -12.4690    4.7490   10.1080 N   0  0  0  0  0  0  0  0  0  0  0  0
  -12.0160    4.1880    8.9920 N   0  0  0  0  0  0  0  0  0  0  0  0
  -10.8400    4.7900    8.7610 N   0  0  0  0  0  0  0  0  0  0  0  0
   -9.9950    4.4790    7.6090 C   0  0  0  0  0  0  0  0  0  0  0  0
   -8.6630    5.2070    7.7200 C   0  0  0  0  0  0  0  0  0  0  0  0
  -10.7490    4.8610    6.3730 C   0  0  0  0  0  0  0  0  0  0  0  0
  -11.0350    6.2020    6.1170 C   0  0  0  0  0  0  0  0  0  0  0  0
  -11.7370    6.5580    4.9650 C   0  0  0  0  0  0  0  0  0  0  0  0
  -12.1550    5.5730    4.0710 C   0  0  0  0  0  0  0  0  0  0  0  0
  -11.8700    4.2310    4.3270 C   0  0  0  0  0  0  0  0  0  0  0  0
  -11.1660    3.8760    5.4790 C   0  0  0  0  0  0  0  0  0  0  0  0
  -12.0160    7.8660    4.7150 O   0  0  0  0  0  0  0  0  0  0  0  0
   -6.8990    7.6510    9.7710 O   0  0  0  0  0  0  0  0  0  0  0  0
   -6.8664    3.0512    5.4612 N   0  0  0  0  0  0  0  0  0  0  0  0
   -7.3236    2.3064    4.4724 N   0  0  0  0  0  0  0  0  0  0  0  0
   -8.5049    2.8215    4.0920 C   0  0  0  0  0  0  0  0  0  0  0  0
   -9.5244    1.9572    2.8820 S   0  0  0  0  0  0  0  0  0  0  0  0
   -8.7901    2.7386    1.3958 C   0  0  0  0  0  0  0  0  0  0  0  0
   -7.3629    2.2397    1.1384 C   0  0  0  0  0  0  0  0  0  0  0  0
   -9.6768    2.4636    0.2124 C   0  0  0  0  0  0  0  0  0  0  0  0
  -10.2701    3.4300   -0.3397 O   0  0  0  0  0  0  0  0  0  0  0  0
   -9.8377    1.1181   -0.2780 N   0  0  0  0  0  0  0  0  0  0  0  0
  -10.6229    0.7404   -1.4278 C   0  0  0  0  0  0  0  0  0  0  0  0
  -11.1488    1.5882   -2.3898 C   0  0  0  0  0  0  0  0  0  0  0  0
  -11.7316    0.7409   -3.3128 C   0  0  0  0  0  0  0  0  0  0  0  0
  -11.5571   -0.5387   -2.9331 N   0  0  0  0  0  0  0  0  0  0  0  0
  -10.8986   -0.5402   -1.7820 N   0  0  0  0  0  0  0  0  0  0  0  0
  -10.4507   -1.7699   -1.1107 C   0  0  0  0  0  0  0  0  0  0  0  0
   -9.1567   -2.2686   -1.7616 C   0  0  0  0  0  0  0  0  0  0  0  0
  -11.5438   -2.8458   -1.1656 C   0  0  0  0  0  0  0  0  0  0  0  0
   -8.8363    3.9184    4.8333 N   0  0  0  0  0  0  0  0  0  0  0  0
   -9.9568    4.8924    4.7268 C   0  0  0  0  0  0  0  0  0  0  0  0
  -11.1419    4.4237    3.8604 C   0  0  0  0  0  0  0  0  0  0  0  0
  -12.2890    5.4408    3.9207 C   0  0  0  0  0  0  0  0  0  0  0  0
  -11.8237    6.8165    3.4345 C   0  0  0  0  0  0  0  0  0  0  0  0
  -10.6209    7.3161    4.2482 C   0  0  0  0  0  0  0  0  0  0  0  0
   -9.4568    6.2988    4.2846 C   0  0  0  0  0  0  0  0  0  0  0  0
   -8.6729    6.2903    2.9611 C   0  0  0  0  0  0  0  0  0  0  0  0
  1  3  4  0
  1 14  4  0
  1  2  1  0
  3  4  4  0
  4  5  4  0
  5  6  4  0
  5 22  1  0
  6  7  1  0
  6 14  4  0
  7  8  1  0
  8  9  4  0
  8 12  4  0
  9 10  4  0
 10 11  4  0
 11 12  4  0
 12 13  1  0
 13 14  1  0
 13 15  1  6
 15 16  4  0
 15 20  4  0
 16 17  4  0
 17 18  4  0
 17 21  1  0
 18 19  4  0
 19 20  4  0
 23 24  4  0
 24 25  4  0
 25 26  1  0
 26 27  1  0
 27 28  1  0
 27 29  1  0
 29 30  2  0
 29 31  1  0
 31 32  1  0
 32 33  4  0
 33 34  4  0
 34 35  4  0
 35 36  4  0
 36 37  1  0
 37 38  1  0
 37 39  1  0
 25 40  4  0
 40 41  1  0
 41 42  1  0
 42 43  1  0
 43 44  1  0
 44 45  1  0
 45 46  1  0
 46 47  1  0
 46 41  1  0
 36 32  4  0
  2 23  4  0
  2 40  4  0
M  END
$$$$

     RDKit          3D

 37 42  0  0  0  0  0  0  0  0999 V2000
   -7.6410    4.9930    6.8080 C   0  0  0  0  0  0  0  0  0  1  0  0
   -7.7310    4.0530    5.7140 C   0  0  0  0  0  0  0  0  0  2  0  0
   -6.4520    5.6300    6.8680 N   0  0  0  0  0  0  0  0  0  0  0  0
   -6.2260    6.5240    7.8670 N   0  0  0  0  0  0  0  0  0  0  0  0
   -7.1930    6.7500    8.7820 C   0  0  0  0  0  0  0  0  0  0  0  0
   -8.4240    6.1170    8.7580 C   0  0  0  0  0  0  0  0  0  0  0  0
   -9.3950    6.3570    9.7450 N   0  0  0  0  0  0  0  0  0  0  0  0
  -10.5620    5.6840    9.7600 C   0  0  0  0  0  0  0  0  0  0  0  0
  -11.5770    5.6820   10.5960 N   0  0  0  0  0  0  0  0  0  0  0  0
  -12.4690    4.7490   10.1080 N   0  0  0  0  0  0  0  0  0  0  0  0
  -12.0160    4.1880    8.9920 N   0  0  0  0  0  0  0  0  0  0  0  0
  -10.8400    4.7900    8.7610 N   0  0  0  0  0  0  0  0  0  0  0  0
   -9.9950    4.4790    7.6090 C   0  0  0  0  0  0  0  0  0  0  0  0
   -8.6630    5.2070    7.7200 C   0  0  0  0  0  0  0  0  0  0  0  0
  -10.7490    4.8610    6.3730 C   0  0  0  0  0  0  0  0  0  0  0  0
  -11.0350    6.2020    6.1170 C   0  0  0  0  0  0  0  0  0  0  0  0
  -11.7370    6.5580    4.9650 C   0  0  0  0  0  0  0  0  0  0  0  0
  -12.1550    5.5730    4.0710 C   0  0  0  0  0  0  0  0  0  0  0  0
  -11.8700    4.2310    4.3270 C   0  0  0  0  0  0  0  0  0  0  0  0
  -11.1660    3.8760    5.4790 C   0  0  0  0  0  0  0  0  0  0  0  0
  -12.0160    7.8660    4.7150 O   0  0  0  0  0  0  0  0  0  0  0  0
   -6.8990    7.6510    9.7710 O   0  0  0  0  0  0  0  0  0  0  0  0
   -6.9224    2.9586    5.4347 C   0  0  0  0  0  0  0  0  0  0  0  0
   -7.4301    2.3755    4.2919 C   0  0  0  0  0  0  0  0  0  0  0  0
   -6.8083    1.2490    3.5375 C   0  0  0  0  0  0  0  0  0  0  0  0
   -5.7794    1.7578    2.6966 O   0  0  0  0  0  0  0  0  0  0  0  0
   -5.0368    0.9383    1.8700 N   0  0  0  0  0  0  0  0  0  0  0  0
   -5.2598   -0.2886    1.8109 O   0  0  0  0  0  0  0  0  0  0  0  0
   -4.0458    1.4848    1.0909 O   0  0  0  0  0  0  0  0  0  0  0  0
   -8.5089    3.0589    3.8655 N   0  0  0  0  0  0  0  0  0  0  0  0
   -8.7382    4.0400    4.7263 N   0  0  0  0  0  0  0  0  0  0  0  0
   -9.7400    5.1010    4.5156 C   0  0  0  0  0  0  0  0  0  0  0  0
  -10.9827    4.5982    3.7412 C   0  0  0  0  0  0  0  0  0  0  0  0
  -10.7540    4.4556    2.2260 C   0  0  0  0  0  0  0  0  0  0  0  0
  -10.1370    5.7208    1.6236 C   0  0  0  0  0  0  0  0  0  0  0  0
   -8.8409    6.0951    2.3467 C   0  0  0  0  0  0  0  0  0  0  0  0
   -9.1039    6.3306    3.8373 C   0  0  0  0  0  0  0  0  0  0  0  0
  1  3  4  0
  1 14  4  0
  1  2  1  0
  3  4  4  0
  4  5  4  0
  5  6  4  0
  5 22  1  0
  6  7  1  0
  6 14  4  0
  7  8  1  0
  8  9  4  0
  8 12  4  0
  9 10  4  0
 10 11  4  0
 11 12  4  0
 12 13  1  0
 13 14  1  0
 13 15  1  6
 15 16  4  0
 15 20  4  0
 16 17  4  0
 17 18  4  0
 17 21  1  0
 18 19  4  0
 19 20  4  0
 23 24  4  0
 24 25  1  0
 25 26  1  0
 26 27  1  0
 27 28  2  0
 27 29  1  0
 24 30  4  0
 30 31  4  0
 31 32  1  0
 32 33  1  0
 33 34  1  0
 34 35  1  0
 35 36  1  0
 36 37  1  0
 37 32  1  0
  2 23  4  0
  2 31  4  0
M  CHG  2  27   1  29  -1
M  END
$$$$

     RDKit          3D

 38 44  0  0  0  0  0  0  0  0999 V2000
   -7.6410    4.9930    6.8080 C   0  0  0  0  0  0  0  0  0  1  0  0
   -7.7310    4.0530    5.7140 C   0  0  0  0  0  0  0  0  0  2  0  0
   -6.4520    5.6300    6.8680 N   0  0  0  0  0  0  0  0  0  0  0  0
   -6.2260    6.5240    7.8670 N   0  0  0  0  0  0  0  0  0  0  0  0
   -7.1930    6.7500    8.7820 C   0  0  0  0  0  0  0  0  0  0  0  0
   -8.4240    6.1170    8.7580 C   0  0  0  0  0  0  0  0  0  0  0  0
   -9.3950    6.3570    9.7450 N   0  0  0  0  0  0  0  0  0  0  0  0
  -10.5620    5.6840    9.7600 C   0  0  0  0  0  0  0  0  0  0  0  0
  -11.5770    5.6820   10.5960 N   0  0  0  0  0  0  0  0  0  0  0  0
  -12.4690    4.7490   10.1080 N   0  0  0  0  0  0  0  0  0  0  0  0
  -12.0160    4.1880    8.9920 N   0  0  0  0  0  0  0  0  0  0  0  0
  -10.8400    4.7900    8.7610 N   0  0  0  0  0  0  0  0  0  0  0  0
   -9.9950    4.4790    7.6090 C   0  0  0  0  0  0  0  0  0  0  0  0
   -8.6630    5.2070    7.7200 C   0  0  0  0  0  0  0  0  0  0  0  0
  -10.7490    4.8610    6.3730 C   0  0  0  0  0  0  0  0  0  0  0  0
  -11.0350    6.2020    6.1170 C   0  0  0  0  0  0  0  0  0  0  0  0
  -11.7370    6.5580    4.9650 C   0  0  0  0  0  0  0  0  0  0  0  0
  -12.1550    5.5730    4.0710 C   0  0  0  0  0  0  0  0  0  0  0  0
  -11.8700    4.2310    4.3270 C   0  0  0  0  0  0  0  0  0  0  0  0
  -11.1660    3.8760    5.4790 C   0  0  0  0  0  0  0  0  0  0  0  0
  -12.0160    7.8660    4.7150 O   0  0  0  0  0  0  0  0  0  0  0  0
   -6.8990    7.6510    9.7710 O   0  0  0  0  0  0  0  0  0  0  0  0
   -6.8972    2.9388    5.5147 C   0  0  0  0  0  0  0  0  0  0  0  0
   -7.4056    1.9890    4.2130 S   0  0  0  0  0  0  0  0  0  0  0  0
   -8.7399    2.9374    3.8641 C   0  0  0  0  0  0  0  0  0  0  0  0
   -9.6246    2.7434    2.8629 N   0  0  0  0  0  0  0  0  0  0  0  0
  -10.6390    3.6339    2.6943 C   0  0  0  0  0  0  0  0  0  0  0  0
  -10.7607    4.7299    3.5155 N   0  0  0  0  0  0  0  0  0  0  0  0
  -11.8566    5.6825    3.2570 C   0  0  0  0  0  0  0  0  0  0  0  0
  -11.5320    6.6008    2.0659 C   0  0  0  0  0  0  0  0  0  0  0  0
  -10.3242    7.5219    2.3605 C   0  0  0  0  0  0  0  0  0  0  0  0
  -10.3987    8.8272    1.5513 C   0  0  0  0  0  0  0  0  0  0  0  0
  -11.1477    8.6177    0.2349 C   0  0  0  0  0  0  0  0  0  0  0  0
  -12.5394    7.9916    0.4879 C   0  0  0  0  0  0  0  0  0  0  0  0
  -12.6704    7.3880    1.7677 O   0  0  0  0  0  0  0  0  0  0  0  0
   -9.8565    4.9355    4.5347 C   0  0  0  0  0  0  0  0  0  0  0  0
   -9.9419    5.9557    5.2706 O   0  0  0  0  0  0  0  0  0  0  0  0
   -8.8255    4.0043    4.7324 C   0  0  0  0  0  0  0  0  0  0  0  0
  1  3  4  0
  1 14  4  0
  1  2  1  0
  3  4  4  0
  4  5  4  0
  5  6  4  0
  5 22  1  0
  6  7  1  0
  6 14  4  0
  7  8  1  0
  8  9  4  0
  8 12  4  0
  9 10  4  0
 10 11  4  0
 11 12  4  0
 12 13  1  0
 13 14  1  0
 13 15  1  6
 15 16  4  0
 15 20  4  0
 16 17  4  0
 17 18  4  0
 17 21  1  0
 18 19  4  0
 19 20  4  0
 23 24  4  0
 24 25  4  0
 25 26  4  0
 26 27  4  0
 27 28  4  0
 28 29  1  0
 29 30  1  0
 30 31  1  0
 31 32  1  0
 32 33  1  0
 33 34  1  0
 34 35  1  0
 28 36  4  0
 36 37  2  0
 36 38  4  0
 38 25  4  0
 35 30  1  0
  2 23  4  0
  2 38  4  0
M  END
$$$$

     RDKit          3D

 45 51  0  0  0  0  0  0  0  0999 V2000
   -7.6410    4.9930    6.8080 C   0  0  0  0  0  0  0  0  0  1  0  0
   -7.7310    4.0530    5.7140 C   0  0  0  0  0  0  0  0  0  2  0  0
   -6.4520    5.6300    6.8680 N   0  0  0  0  0  0  0  0  0  0  0  0
   -6.2260    6.5240    7.8670 N   0  0  0  0  0  0  0  0  0  0  0  0
   -7.1930    6.7500    8.7820 C   0  0  0  0  0  0  0  0  0  0  0  0
   -8.4240    6.1170    8.7580 C   0  0  0  0  0  0  0  0  0  0  0  0
   -9.3950    6.3570    9.7450 N   0  0  0  0  0  0  0  0  0  0  0  0
  -10.5620    5.6840    9.7600 C   0  0  0  0  0  0  0  0  0  0  0  0
  -11.5770    5.6820   10.5960 N   0  0  0  0  0  0  0  0  0  0  0  0
  -12.4690    4.7490   10.1080 N   0  0  0  0  0  0  0  0  0  0  0  0
  -12.0160    4.1880    8.9920 N   0  0  0  0  0  0  0  0  0  0  0  0
  -10.8400    4.7900    8.7610 N   0  0  0  0  0  0  0  0  0  0  0  0
   -9.9950    4.4790    7.6090 C   0  0  0  0  0  0  0  0  0  0  0  0
   -8.6630    5.2070    7.7200 C   0  0  0  0  0  0  0  0  0  0  0  0
  -10.7490    4.8610    6.3730 C   0  0  0  0  0  0  0  0  0  0  0  0
  -11.0350    6.2020    6.1170 C   0  0  0  0  0  0  0  0  0  0  0  0
  -11.7370    6.5580    4.9650 C   0  0  0  0  0  0  0  0  0  0  0  0
  -12.1550    5.5730    4.0710 C   0  0  0  0  0  0  0  0  0  0  0  0
  -11.8700    4.2310    4.3270 C   0  0  0  0  0  0  0  0  0  0  0  0
  -11.1660    3.8760    5.4790 C   0  0  0  0  0  0  0  0  0  0  0  0
  -12.0160    7.8660    4.7150 O   0  0  0  0  0  0  0  0  0  0  0  0
   -6.8990    7.6510    9.7710 O   0  0  0  0  0  0  0  0  0  0  0  0
   -8.7221    4.0293    4.6663 C   0  0  0  0  0  0  0  0  0  0  0  0
   -9.7546    5.0471    4.3899 C   0  0  0  0  0  0  0  0  0  0  0  0
   -9.8296    6.0830    5.1046 O   0  0  0  0  0  0  0  0  0  0  0  0
  -10.6572    4.8809    3.2917 N   0  0  0  0  0  0  0  0  0  0  0  0
  -11.6641    5.8303    3.0570 N   0  0  0  0  0  0  0  0  0  0  0  0
  -12.4569    5.7473    2.0336 C   0  0  0  0  0  0  0  0  0  0  0  0
  -13.5228    6.7511    1.8098 C   0  0  0  0  0  0  0  0  0  0  0  0
  -13.7570    7.7675    2.7570 C   0  0  0  0  0  0  0  0  0  0  0  0
  -14.7712    8.7048    2.5556 C   0  0  0  0  0  0  0  0  0  0  0  0
  -15.5645    8.6421    1.4112 C   0  0  0  0  0  0  0  0  0  0  0  0
  -15.3453    7.6435    0.4606 C   0  0  0  0  0  0  0  0  0  0  0  0
  -14.3225    6.6901    0.6464 C   0  0  0  0  0  0  0  0  0  0  0  0
  -14.0757    5.6813   -0.3011 O   0  0  0  0  0  0  0  0  0  0  0  0
  -14.8144    5.5030   -1.5054 C   0  0  0  0  0  0  0  0  0  0  0  0
   -8.4986    2.9564    3.8811 N   0  0  0  0  0  0  0  0  0  0  0  0
   -7.4709    2.3001    4.3992 N   0  0  0  0  0  0  0  0  0  0  0  0
   -7.0186    2.9137    5.4815 N   0  0  0  0  0  0  0  0  0  0  0  0
   -5.9599    2.4074    6.3119 C   0  0  0  0  0  0  0  0  0  0  0  0
   -5.7612    2.7591    7.5937 N   0  0  0  0  0  0  0  0  0  0  0  0
   -4.7440    2.0484    7.9986 O   0  0  0  0  0  0  0  0  0  0  0  0
   -4.2590    1.2502    7.0876 N   0  0  0  0  0  0  0  0  0  0  0  0
   -5.0193    1.4525    5.9999 C   0  0  0  0  0  0  0  0  0  0  0  0
   -4.8046    0.8040    4.7463 N   0  0  0  0  0  0  0  0  0  0  0  0
  1  3  4  0
  1 14  4  0
  1  2  1  0
  3  4  4  0
  4  5  4  0
  5  6  4  0
  5 22  1  0
  6  7  1  0
  6 14  4  0
  7  8  1  0
  8  9  4  0
  8 12  4  0
  9 10  4  0
 10 11  4  0
 11 12  4  0
 12 13  1  0
 13 14  1  0
 13 15  1  6
 15 16  4  0
 15 20  4  0
 16 17  4  0
 17 18  4  0
 17 21  1  0
 18 19  4  0
 19 20  4  0
 23 24  1  0
 24 25  2  0
 24 26  1  0
 26 27  1  0
 27 28  2  3
 28 29  1  0
 29 30  4  0
 30 31  4  0
 31 32  4  0
 32 33  4  0
 33 34  4  0
 34 35  1  0
 35 36  1  0
 23 37  4  0
 37 38  4  0
 38 39  4  0
 39 40  1  0
 40 41  4  0
 41 42  4  0
 42 43  4  0
 43 44  4  0
 44 45  1  0
 44 40  4  0
 34 29  4  0
  2 23  4  0
  2 39  4  0
M  END
$$$$

     RDKit          3D

 45 51  0  0  0  0  0  0  0  0999 V2000
   -7.6410    4.9930    6.8080 C   0  0  0  0  0  0  0  0  0  1  0  0
   -7.7310    4.0530    5.7140 C   0  0  0  0  0  0  0  0  0  2  0  0
   -6.4520    5.6300    6.8680 N   0  0  0  0  0  0  0  0  0  0  0  0
   -6.2260    6.5240    7.8670 N   0  0  0  0  0  0  0  0  0  0  0  0
   -7.1930    6.7500    8.7820 C   0  0  0  0  0  0  0  0  0  0  0  0
   -8.4240    6.1170    8.7580 C   0  0  0  0  0  0  0  0  0  0  0  0
   -9.3950    6.3570    9.7450 N   0  0  0  0  0  0  0  0  0  0  0  0
  -10.5620    5.6840    9.7600 C   0  0  0  0  0  0  0  0  0  0  0  0
  -11.5770    5.6820   10.5960 N   0  0  0  0  0  0  0  0  0  0  0  0
  -12.4690    4.7490   10.1080 N   0  0  0  0  0  0  0  0  0  0  0  0
  -12.0160    4.1880    8.9920 N   0  0  0  0  0  0  0  0  0  0  0  0
  -10.8400    4.7900    8.7610 N   0  0  0  0  0  0  0  0  0  0  0  0
   -9.9950    4.4790    7.6090 C   0  0  0  0  0  0  0  0  0  0  0  0
   -8.6630    5.2070    7.7200 C   0  0  0  0  0  0  0  0  0  0  0  0
  -10.7490    4.8610    6.3730 C   0  0  0  0  0  0  0  0  0  0  0  0
  -11.0350    6.2020    6.1170 C   0  0  0  0  0  0  0  0  0  0  0  0
  -11.7370    6.5580    4.9650 C   0  0  0  0  0  0  0  0  0  0  0  0
  -12.1550    5.5730    4.0710 C   0  0  0  0  0  0  0  0  0  0  0  0
  -11.8700    4.2310    4.3270 C   0  0  0  0  0  0  0  0  0  0  0  0
  -11.1660    3.8760    5.4790 C   0  0  0  0  0  0  0  0  0  0  0  0
  -12.0160    7.8660    4.7150 O   0  0  0  0  0  0  0  0  0  0  0  0
   -6.8990    7.6510    9.7710 O   0  0  0  0  0  0  0  0  0  0  0  0
   -8.8182    3.9297    4.7599 C   0  0  0  0  0  0  0  0  0  0  0  0
   -9.9839    4.8216    4.6081 C   0  0  0  0  0  0  0  0  0  0  0  0
  -10.0152    5.9305    5.2047 O   0  0  0  0  0  0  0  0  0  0  0  0
  -11.0748    4.4444    3.7631 N   0  0  0  0  0  0  0  0  0  0  0  0
  -12.1504    5.3259    3.5685 N   0  0  0  0  0  0  0  0  0  0  0  0
  -13.1863    4.9983    2.8615 C   0  0  0  0  0  0  0  0  0  0  0  0
  -14.3185    5.9330    2.6649 C   0  0  0  0  0  0  0  0  0  0  0  0
  -15.5126    5.4197    2.1290 C   0  0  0  0  0  0  0  0  0  0  0  0
  -16.6120    6.2513    1.9141 C   0  0  0  0  0  0  0  0  0  0  0  0
  -16.5335    7.6079    2.2276 C   0  0  0  0  0  0  0  0  0  0  0  0
  -15.3530    8.1387    2.7504 C   0  0  0  0  0  0  0  0  0  0  0  0
  -14.2312    7.3137    2.9727 C   0  0  0  0  0  0  0  0  0  0  0  0
  -13.0298    7.8375    3.4820 O   0  0  0  0  0  0  0  0  0  0  0  0
  -12.8109    9.2080    3.8009 C   0  0  0  0  0  0  0  0  0  0  0  0
   -8.5270    2.9343    3.8974 N   0  0  0  0  0  0  0  0  0  0  0  0
   -7.3673    2.4157    4.2746 N   0  0  0  0  0  0  0  0  0  0  0  0
   -6.9081    3.0362    5.3490 N   0  0  0  0  0  0  0  0  0  0  0  0
   -5.6718    2.6921    5.9847 C   0  0  0  0  0  0  0  0  0  0  0  0
   -4.5248    2.4566    5.3283 N   0  0  0  0  0  0  0  0  0  0  0  0
   -3.6535    2.1563    6.2538 O   0  0  0  0  0  0  0  0  0  0  0  0
   -4.1421    2.1607    7.4659 N   0  0  0  0  0  0  0  0  0  0  0  0
   -5.4330    2.4987    7.3228 C   0  0  0  0  0  0  0  0  0  0  0  0
   -6.3808    2.5172    8.3884 N   0  0  0  0  0  0  0  0  0  0  0  0
  1  3  4  0
  1 14  4  0
  1  2  1  0
  3  4  4  0
  4  5  4  0
  5  6  4  0
  5 22  1  0
  6  7  1  0
  6 14  4  0
  7  8  1  0
  8  9  4  0
  8 12  4  0
  9 10  4  0
 10 11  4  0
 11 12  4  0
 12 13  1  0
 13 14  1  0
 13 15  1  6
 15 16  4  0
 15 20  4  0
 16 17  4  0
 17 18  4  0
 17 21  1  0
 18 19  4  0
 19 20  4  0
 23 24  1  0
 24 25  2  0
 24 26  1  0
 26 27  1  0
 27 28  2  3
 28 29  1  0
 29 30  4  0
 30 31  4  0
 31 32  4  0
 32 33  4  0
 33 34  4  0
 34 35  1  0
 35 36  1  0
 23 37  4  0
 37 38  4  0
 38 39  4  0
 39 40  1  0
 40 41  4  0
 41 42  4  0
 42 43  4  0
 43 44  4  0
 44 45  1  0
 44 40  4  0
 34 29  4  0
  2 23  4  0
  2 39  4  0
M  END
$$$$

     RDKit          3D

 41 47  0  0  0  0  0  0  0  0999 V2000
   -7.6410    4.9930    6.8080 C   0  0  0  0  0  0  0  0  0  1  0  0
   -7.7310    4.0530    5.7140 C   0  0  0  0  0  0  0  0  0  2  0  0
   -6.4520    5.6300    6.8680 N   0  0  0  0  0  0  0  0  0  0  0  0
   -6.2260    6.5240    7.8670 N   0  0  0  0  0  0  0  0  0  0  0  0
   -7.1930    6.7500    8.7820 C   0  0  0  0  0  0  0  0  0  0  0  0
   -8.4240    6.1170    8.7580 C   0  0  0  0  0  0  0  0  0  0  0  0
   -9.3950    6.3570    9.7450 N   0  0  0  0  0  0  0  0  0  0  0  0
  -10.5620    5.6840    9.7600 C   0  0  0  0  0  0  0  0  0  0  0  0
  -11.5770    5.6820   10.5960 N   0  0  0  0  0  0  0  0  0  0  0  0
  -12.4690    4.7490   10.1080 N   0  0  0  0  0  0  0  0  0  0  0  0
  -12.0160    4.1880    8.9920 N   0  0  0  0  0  0  0  0  0  0  0  0
  -10.8400    4.7900    8.7610 N   0  0  0  0  0  0  0  0  0  0  0  0
   -9.9950    4.4790    7.6090 C   0  0  0  0  0  0  0  0  0  0  0  0
   -8.6630    5.2070    7.7200 C   0  0  0  0  0  0  0  0  0  0  0  0
  -10.7490    4.8610    6.3730 C   0  0  0  0  0  0  0  0  0  0  0  0
  -11.0350    6.2020    6.1170 C   0  0  0  0  0  0  0  0  0  0  0  0
  -11.7370    6.5580    4.9650 C   0  0  0  0  0  0  0  0  0  0  0  0
  -12.1550    5.5730    4.0710 C   0  0  0  0  0  0  0  0  0  0  0  0
  -11.8700    4.2310    4.3270 C   0  0  0  0  0  0  0  0  0  0  0  0
  -11.1660    3.8760    5.4790 C   0  0  0  0  0  0  0  0  0  0  0  0
  -12.0160    7.8660    4.7150 O   0  0  0  0  0  0  0  0  0  0  0  0
   -6.8990    7.6510    9.7710 O   0  0  0  0  0  0  0  0  0  0  0  0
   -6.9630    2.9021    5.4771 C   0  0  0  0  0  0  0  0  0  0  0  0
   -7.4323    2.1708    4.4435 N   0  0  0  0  0  0  0  0  0  0  0  0
   -6.7638    0.6957    3.8289 S   0  0  0  0  0  0  0  0  0  0  0  0
   -6.1777    0.9585    2.4698 O   0  0  0  0  0  0  0  0  0  0  0  0
   -5.6808    0.2018    4.7462 O   0  0  0  0  0  0  0  0  0  0  0  0
   -8.0304   -0.5223    3.7314 C   0  0  0  0  0  0  0  0  0  0  0  0
   -8.9469   -0.6591    4.7836 C   0  0  0  0  0  0  0  0  0  0  0  0
   -9.9684   -1.6102    4.7063 C   0  0  0  0  0  0  0  0  0  0  0  0
  -10.0758   -2.4316    3.5805 C   0  0  0  0  0  0  0  0  0  0  0  0
   -9.1613   -2.3031    2.5310 C   0  0  0  0  0  0  0  0  0  0  0  0
   -8.1395   -1.3513    2.6050 C   0  0  0  0  0  0  0  0  0  0  0  0
   -8.5300    2.8028    4.0000 C   0  0  0  0  0  0  0  0  0  0  0  0
   -9.3125    2.4115    2.9661 N   0  0  0  0  0  0  0  0  0  0  0  0
  -10.3929    3.1779    2.6383 C   0  0  0  0  0  0  0  0  0  0  0  0
  -11.2588    2.7857    1.4887 C   0  0  0  0  0  0  0  0  0  0  0  0
  -10.6435    4.3413    3.3162 N   0  0  0  0  0  0  0  0  0  0  0  0
   -9.8581    4.7570    4.3543 C   0  0  0  0  0  0  0  0  0  0  0  0
  -10.1664    6.0578    5.0275 C   0  0  0  0  0  0  0  0  0  0  0  0
   -8.7844    3.9352    4.7235 C   0  0  0  0  0  0  0  0  0  0  0  0
  1  3  4  0
  1 14  4  0
  1  2  1  0
  3  4  4  0
  4  5  4  0
  5  6  4  0
  5 22  1  0
  6  7  1  0
  6 14  4  0
  7  8  1  0
  8  9  4  0
  8 12  4  0
  9 10  4  0
 10 11  4  0
 11 12  4  0
 12 13  1  0
 13 14  1  0
 13 15  1  6
 15 16  4  0
 15 20  4  0
 16 17  4  0
 17 18  4  0
 17 21  1  0
 18 19  4  0
 19 20  4  0
 23 24  4  0
 24 25  1  0
 25 26  2  0
 25 27  2  0
 25 28  1  0
 28 29  4  0
 29 30  4  0
 30 31  4  0
 31 32  4  0
 32 33  4  0
 24 34  4  0
 34 35  4  0
 35 36  4  0
 36 37  1  0
 36 38  4  0
 38 39  4  0
 39 40  1  0
 39 41  4  0
 33 28  4  0
 41 34  4  0
  2 23  4  0
  2 41  4  0
M  END
$$$$

     RDKit          3D

 41 47  0  0  0  0  0  0  0  0999 V2000
   -7.6410    4.9930    6.8080 C   0  0  0  0  0  0  0  0  0  1  0  0
   -7.7310    4.0530    5.7140 C   0  0  0  0  0  0  0  0  0  2  0  0
   -6.4520    5.6300    6.8680 N   0  0  0  0  0  0  0  0  0  0  0  0
   -6.2260    6.5240    7.8670 N   0  0  0  0  0  0  0  0  0  0  0  0
   -7.1930    6.7500    8.7820 C   0  0  0  0  0  0  0  0  0  0  0  0
   -8.4240    6.1170    8.7580 C   0  0  0  0  0  0  0  0  0  0  0  0
   -9.3950    6.3570    9.7450 N   0  0  0  0  0  0  0  0  0  0  0  0
  -10.5620    5.6840    9.7600 C   0  0  0  0  0  0  0  0  0  0  0  0
  -11.5770    5.6820   10.5960 N   0  0  0  0  0  0  0  0  0  0  0  0
  -12.4690    4.7490   10.1080 N   0  0  0  0  0  0  0  0  0  0  0  0
  -12.0160    4.1880    8.9920 N   0  0  0  0  0  0  0  0  0  0  0  0
  -10.8400    4.7900    8.7610 N   0  0  0  0  0  0  0  0  0  0  0  0
   -9.9950    4.4790    7.6090 C   0  0  0  0  0  0  0  0  0  0  0  0
   -8.6630    5.2070    7.7200 C   0  0  0  0  0  0  0  0  0  0  0  0
  -10.7490    4.8610    6.3730 C   0  0  0  0  0  0  0  0  0  0  0  0
  -11.0350    6.2020    6.1170 C   0  0  0  0  0  0  0  0  0  0  0  0
  -11.7370    6.5580    4.9650 C   0  0  0  0  0  0  0  0  0  0  0  0
  -12.1550    5.5730    4.0710 C   0  0  0  0  0  0  0  0  0  0  0  0
  -11.8700    4.2310    4.3270 C   0  0  0  0  0  0  0  0  0  0  0  0
  -11.1660    3.8760    5.4790 C   0  0  0  0  0  0  0  0  0  0  0  0
  -12.0160    7.8660    4.7150 O   0  0  0  0  0  0  0  0  0  0  0  0
   -6.8990    7.6510    9.7710 O   0  0  0  0  0  0  0  0  0  0  0  0
   -6.9634    2.9031    5.4768 C   0  0  0  0  0  0  0  0  0  0  0  0
   -7.4239    2.1771    4.4353 N   0  0  0  0  0  0  0  0  0  0  0  0
   -6.7207    0.7145    3.8257 S   0  0  0  0  0  0  0  0  0  0  0  0
   -5.4682    1.0577    3.0688 O   0  0  0  0  0  0  0  0  0  0  0  0
   -7.6820    0.0203    2.9025 O   0  0  0  0  0  0  0  0  0  0  0  0
   -6.3544   -0.3611    5.1698 C   0  0  0  0  0  0  0  0  0  0  0  0
   -7.2878   -0.5264    6.2030 C   0  0  0  0  0  0  0  0  0  0  0  0
   -7.0051   -1.3775    7.2759 C   0  0  0  0  0  0  0  0  0  0  0  0
   -5.7913   -2.0695    7.3194 C   0  0  0  0  0  0  0  0  0  0  0  0
   -4.8597   -1.9121    6.2889 C   0  0  0  0  0  0  0  0  0  0  0  0
   -5.1395   -1.0609    5.2149 C   0  0  0  0  0  0  0  0  0  0  0  0
   -8.5153    2.8163    3.9829 C   0  0  0  0  0  0  0  0  0  0  0  0
   -9.2803    2.4461    2.9281 N   0  0  0  0  0  0  0  0  0  0  0  0
  -10.3467    3.2267    2.5875 C   0  0  0  0  0  0  0  0  0  0  0  0
  -11.1904    2.8599    1.4131 C   0  0  0  0  0  0  0  0  0  0  0  0
  -10.6009    4.3838    3.2747 N   0  0  0  0  0  0  0  0  0  0  0  0
   -9.8329    4.7802    4.3327 C   0  0  0  0  0  0  0  0  0  0  0  0
  -10.1428    6.0758    5.0153 C   0  0  0  0  0  0  0  0  0  0  0  0
   -8.7728    3.9454    4.7121 C   0  0  0  0  0  0  0  0  0  0  0  0
  1  3  4  0
  1 14  4  0
  1  2  1  0
  3  4  4  0
  4  5  4  0
  5  6  4  0
  5 22  1  0
  6  7  1  0
  6 14  4  0
  7  8  1  0
  8  9  4  0
  8 12  4  0
  9 10  4  0
 10 11  4  0
 11 12  4  0
 12 13  1  0
 13 14  1  0
 13 15  1  6
 15 16  4  0
 15 20  4  0
 16 17  4  0
 17 18  4  0
 17 21  1  0
 18 19  4  0
 19 20  4  0
 23 24  4  0
 24 25  1  0
 25 26  2  0
 25 27  2  0
 25 28  1  0
 28 29  4  0
 29 30  4  0
 30 31  4  0
 31 32  4  0
 32 33  4  0
 24 34  4  0
 34 35  4  0
 35 36  4  0
 36 37  1  0
 36 38  4  0
 38 39  4  0
 39 40  1  0
 39 41  4  0
 33 28  4  0
 41 34  4  0
  2 23  4  0
  2 41  4  0
M  END
$$$$

     RDKit          3D

 37 43  0  0  0  0  0  0  0  0999 V2000
   -7.6410    4.9930    6.8080 C   0  0  0  0  0  0  0  0  0  1  0  0
   -7.7310    4.0530    5.7140 C   0  0  0  0  0  0  0  0  0  2  0  0
   -6.4520    5.6300    6.8680 N   0  0  0  0  0  0  0  0  0  0  0  0
   -6.2260    6.5240    7.8670 N   0  0  0  0  0  0  0  0  0  0  0  0
   -7.1930    6.7500    8.7820 C   0  0  0  0  0  0  0  0  0  0  0  0
   -8.4240    6.1170    8.7580 C   0  0  0  0  0  0  0  0  0  0  0  0
   -9.3950    6.3570    9.7450 N   0  0  0  0  0  0  0  0  0  0  0  0
  -10.5620    5.6840    9.7600 C   0  0  0  0  0  0  0  0  0  0  0  0
  -11.5770    5.6820   10.5960 N   0  0  0  0  0  0  0  0  0  0  0  0
  -12.4690    4.7490   10.1080 N   0  0  0  0  0  0  0  0  0  0  0  0
  -12.0160    4.1880    8.9920 N   0  0  0  0  0  0  0  0  0  0  0  0
  -10.8400    4.7900    8.7610 N   0  0  0  0  0  0  0  0  0  0  0  0
   -9.9950    4.4790    7.6090 C   0  0  0  0  0  0  0  0  0  0  0  0
   -8.6630    5.2070    7.7200 C   0  0  0  0  0  0  0  0  0  0  0  0
  -10.7490    4.8610    6.3730 C   0  0  0  0  0  0  0  0  0  0  0  0
  -11.0350    6.2020    6.1170 C   0  0  0  0  0  0  0  0  0  0  0  0
  -11.7370    6.5580    4.9650 C   0  0  0  0  0  0  0  0  0  0  0  0
  -12.1550    5.5730    4.0710 C   0  0  0  0  0  0  0  0  0  0  0  0
  -11.8700    4.2310    4.3270 C   0  0  0  0  0  0  0  0  0  0  0  0
  -11.1660    3.8760    5.4790 C   0  0  0  0  0  0  0  0  0  0  0  0
  -12.0160    7.8660    4.7150 O   0  0  0  0  0  0  0  0  0  0  0  0
   -6.8990    7.6510    9.7710 O   0  0  0  0  0  0  0  0  0  0  0  0
   -7.0227    2.8313    5.5531 C   0  0  0  0  0  0  0  0  0  0  0  0
   -5.9757    2.3224    6.5056 C   0  0  0  0  0  0  0  0  0  0  0  0
   -4.7359    1.8920    5.7655 C   0  0  0  0  0  0  0  0  0  0  0  0
   -4.3479    0.5418    5.7482 C   0  0  0  0  0  0  0  0  0  0  0  0
   -3.2025    0.1462    5.0500 C   0  0  0  0  0  0  0  0  0  0  0  0
   -2.4339    1.0944    4.3693 C   0  0  0  0  0  0  0  0  0  0  0  0
   -2.8082    2.4405    4.3876 C   0  0  0  0  0  0  0  0  0  0  0  0
   -3.9543    2.8398    5.0820 C   0  0  0  0  0  0  0  0  0  0  0  0
   -7.5960    1.9451    4.2289 S   0  0  0  0  0  0  0  0  0  0  0  0
   -8.7837    3.0469    3.8003 C   0  0  0  0  0  0  0  0  0  0  0  0
   -9.6902    2.9621    2.7458 C   0  0  0  0  0  0  0  0  0  0  0  0
  -10.6139    4.0039    2.5798 C   0  0  0  0  0  0  0  0  0  0  0  0
  -10.6098    5.1039    3.4585 C   0  0  0  0  0  0  0  0  0  0  0  0
   -9.6889    5.1661    4.5177 C   0  0  0  0  0  0  0  0  0  0  0  0
   -8.7745    4.1160    4.6866 C   0  0  0  0  0  0  0  0  0  0  0  0
  1  3  4  0
  1 14  4  0
  1  2  1  0
  3  4  4  0
  4  5  4  0
  5  6  4  0
  5 22  1  0
  6  7  1  0
  6 14  4  0
  7  8  1  0
  8  9  4  0
  8 12  4  0
  9 10  4  0
 10 11  4  0
 11 12  4  0
 12 13  1  0
 13 14  1  0
 13 15  1  6
 15 16  4  0
 15 20  4  0
 16 17  4  0
 17 18  4  0
 17 21  1  0
 18 19  4  0
 19 20  4  0
 23 24  1  0
 24 25  1  0
 25 26  4  0
 26 27  4  0
 27 28  4  0
 28 29  4  0
 29 30  4  0
 23 31  4  0
 31 32  4  0
 32 33  4  0
 33 34  4  0
 34 35  4  0
 35 36  4  0
 36 37  4  0
 30 25  4  0
 37 32  4  0
  2 23  4  0
  2 37  4  0
M  END
$$$$

     RDKit          3D

 37 43  0  0  0  0  0  0  0  0999 V2000
   -7.6410    4.9930    6.8080 C   0  0  0  0  0  0  0  0  0  1  0  0
   -7.7310    4.0530    5.7140 C   0  0  0  0  0  0  0  0  0  2  0  0
   -6.4520    5.6300    6.8680 N   0  0  0  0  0  0  0  0  0  0  0  0
   -6.2260    6.5240    7.8670 N   0  0  0  0  0  0  0  0  0  0  0  0
   -7.1930    6.7500    8.7820 C   0  0  0  0  0  0  0  0  0  0  0  0
   -8.4240    6.1170    8.7580 C   0  0  0  0  0  0  0  0  0  0  0  0
   -9.3950    6.3570    9.7450 N   0  0  0  0  0  0  0  0  0  0  0  0
  -10.5620    5.6840    9.7600 C   0  0  0  0  0  0  0  0  0  0  0  0
  -11.5770    5.6820   10.5960 N   0  0  0  0  0  0  0  0  0  0  0  0
  -12.4690    4.7490   10.1080 N   0  0  0  0  0  0  0  0  0  0  0  0
  -12.0160    4.1880    8.9920 N   0  0  0  0  0  0  0  0  0  0  0  0
  -10.8400    4.7900    8.7610 N   0  0  0  0  0  0  0  0  0  0  0  0
   -9.9950    4.4790    7.6090 C   0  0  0  0  0  0  0  0  0  0  0  0
   -8.6630    5.2070    7.7200 C   0  0  0  0  0  0  0  0  0  0  0  0
  -10.7490    4.8610    6.3730 C   0  0  0  0  0  0  0  0  0  0  0  0
  -11.0350    6.2020    6.1170 C   0  0  0  0  0  0  0  0  0  0  0  0
  -11.7370    6.5580    4.9650 C   0  0  0  0  0  0  0  0  0  0  0  0
  -12.1550    5.5730    4.0710 C   0  0  0  0  0  0  0  0  0  0  0  0
  -11.8700    4.2310    4.3270 C   0  0  0  0  0  0  0  0  0  0  0  0
  -11.1660    3.8760    5.4790 C   0  0  0  0  0  0  0  0  0  0  0  0
  -12.0160    7.8660    4.7150 O   0  0  0  0  0  0  0  0  0  0  0  0
   -6.8990    7.6510    9.7710 O   0  0  0  0  0  0  0  0  0  0  0  0
   -6.9673    2.8763    5.5169 C   0  0  0  0  0  0  0  0  0  0  0  0
   -5.7892    2.4939    6.3729 C   0  0  0  0  0  0  0  0  0  0  0  0
   -5.6624    0.9986    6.5069 C   0  0  0  0  0  0  0  0  0  0  0  0
   -6.6291    0.2696    7.2213 C   0  0  0  0  0  0  0  0  0  0  0  0
   -6.5152   -1.1186    7.3454 C   0  0  0  0  0  0  0  0  0  0  0  0
   -5.4363   -1.7876    6.7612 C   0  0  0  0  0  0  0  0  0  0  0  0
   -4.4688   -1.0694    6.0526 C   0  0  0  0  0  0  0  0  0  0  0  0
   -4.5792    0.3188    5.9245 C   0  0  0  0  0  0  0  0  0  0  0  0
   -7.4397    2.0580    4.1104 S   0  0  0  0  0  0  0  0  0  0  0  0
   -8.6986    3.0979    3.7354 C   0  0  0  0  0  0  0  0  0  0  0  0
   -9.5633    3.0367    2.6450 C   0  0  0  0  0  0  0  0  0  0  0  0
  -10.5287    4.0437    2.5062 C   0  0  0  0  0  0  0  0  0  0  0  0
  -10.6064    5.0871    3.4471 C   0  0  0  0  0  0  0  0  0  0  0  0
   -9.7220    5.1304    4.5380 C   0  0  0  0  0  0  0  0  0  0  0  0
   -8.7672    4.1128    4.6809 C   0  0  0  0  0  0  0  0  0  0  0  0
  1  3  4  0
  1 14  4  0
  1  2  1  0
  3  4  4  0
  4  5  4  0
  5  6  4  0
  5 22  1  0
  6  7  1  0
  6 14  4  0
  7  8  1  0
  8  9  4  0
  8 12  4  0
  9 10  4  0
 10 11  4  0
 11 12  4  0
 12 13  1  0
 13 14  1  0
 13 15  1  6
 15 16  4  0
 15 20  4  0
 16 17  4  0
 17 18  4  0
 17 21  1  0
 18 19  4  0
 19 20  4  0
 23 24  1  0
 24 25  1  0
 25 26  4  0
 26 27  4  0
 27 28  4  0
 28 29  4  0
 29 30  4  0
 23 31  4  0
 31 32  4  0
 32 33  4  0
 33 34  4  0
 34 35  4  0
 35 36  4  0
 36 37  4  0
 30 25  4  0
 37 32  4  0
  2 23  4  0
  2 37  4  0
M  END
$$$$

     RDKit          3D

 37 43  0  0  0  0  0  0  0  0999 V2000
   -7.6410    4.9930    6.8080 C   0  0  0  0  0  0  0  0  0  1  0  0
   -7.7310    4.0530    5.7140 C   0  0  0  0  0  0  0  0  0  2  0  0
   -6.4520    5.6300    6.8680 N   0  0  0  0  0  0  0  0  0  0  0  0
   -6.2260    6.5240    7.8670 N   0  0  0  0  0  0  0  0  0  0  0  0
   -7.1930    6.7500    8.7820 C   0  0  0  0  0  0  0  0  0  0  0  0
   -8.4240    6.1170    8.7580 C   0  0  0  0  0  0  0  0  0  0  0  0
   -9.3950    6.3570    9.7450 N   0  0  0  0  0  0  0  0  0  0  0  0
  -10.5620    5.6840    9.7600 C   0  0  0  0  0  0  0  0  0  0  0  0
  -11.5770    5.6820   10.5960 N   0  0  0  0  0  0  0  0  0  0  0  0
  -12.4690    4.7490   10.1080 N   0  0  0  0  0  0  0  0  0  0  0  0
  -12.0160    4.1880    8.9920 N   0  0  0  0  0  0  0  0  0  0  0  0
  -10.8400    4.7900    8.7610 N   0  0  0  0  0  0  0  0  0  0  0  0
   -9.9950    4.4790    7.6090 C   0  0  0  0  0  0  0  0  0  0  0  0
   -8.6630    5.2070    7.7200 C   0  0  0  0  0  0  0  0  0  0  0  0
  -10.7490    4.8610    6.3730 C   0  0  0  0  0  0  0  0  0  0  0  0
  -11.0350    6.2020    6.1170 C   0  0  0  0  0  0  0  0  0  0  0  0
  -11.7370    6.5580    4.9650 C   0  0  0  0  0  0  0  0  0  0  0  0
  -12.1550    5.5730    4.0710 C   0  0  0  0  0  0  0  0  0  0  0  0
  -11.8700    4.2310    4.3270 C   0  0  0  0  0  0  0  0  0  0  0  0
  -11.1660    3.8760    5.4790 C   0  0  0  0  0  0  0  0  0  0  0  0
  -12.0160    7.8660    4.7150 O   0  0  0  0  0  0  0  0  0  0  0  0
   -6.8990    7.6510    9.7710 O   0  0  0  0  0  0  0  0  0  0  0  0
   -8.8318    4.0567    4.7444 C   0  0  0  0  0  0  0  0  0  0  0  0
   -9.9351    5.0802    4.6907 C   0  0  0  0  0  0  0  0  0  0  0  0
  -10.3147    5.4175    3.2720 C   0  0  0  0  0  0  0  0  0  0  0  0
   -9.4002    6.0792    2.4345 C   0  0  0  0  0  0  0  0  0  0  0  0
   -9.7534    6.3997    1.1194 C   0  0  0  0  0  0  0  0  0  0  0  0
  -11.0205    6.0678    0.6338 C   0  0  0  0  0  0  0  0  0  0  0  0
  -11.9364    5.4098    1.4596 C   0  0  0  0  0  0  0  0  0  0  0  0
  -11.5870    5.0853    2.7743 C   0  0  0  0  0  0  0  0  0  0  0  0
   -8.7272    2.7073    3.7242 S   0  0  0  0  0  0  0  0  0  0  0  0
   -7.3498    2.0744    4.4383 C   0  0  0  0  0  0  0  0  0  0  0  0
   -6.6757    0.9032    4.1014 C   0  0  0  0  0  0  0  0  0  0  0  0
   -5.5581    0.5381    4.8660 C   0  0  0  0  0  0  0  0  0  0  0  0
   -5.1482    1.3355    5.9505 C   0  0  0  0  0  0  0  0  0  0  0  0
   -5.8480    2.5089    6.2771 C   0  0  0  0  0  0  0  0  0  0  0  0
   -6.9540    2.8816    5.4976 C   0  0  0  0  0  0  0  0  0  0  0  0
  1  3  4  0
  1 14  4  0
  1  2  1  0
  3  4  4  0
  4  5  4  0
  5  6  4  0
  5 22  1  0
  6  7  1  0
  6 14  4  0
  7  8  1  0
  8  9  4  0
  8 12  4  0
  9 10  4  0
 10 11  4  0
 11 12  4  0
 12 13  1  0
 13 14  1  0
 13 15  1  6
 15 16  4  0
 15 20  4  0
 16 17  4  0
 17 18  4  0
 17 21  1  0
 18 19  4  0
 19 20  4  0
 23 24  1  0
 24 25  1  0
 25 26  4  0
 26 27  4  0
 27 28  4  0
 28 29  4  0
 29 30  4  0
 23 31  4  0
 31 32  4  0
 32 33  4  0
 33 34  4  0
 34 35  4  0
 35 36  4  0
 36 37  4  0
 30 25  4  0
 37 32  4  0
  2 23  4  0
  2 37  4  0
M  END
$$$$

     RDKit          3D

 37 43  0  0  0  0  0  0  0  0999 V2000
   -7.6410    4.9930    6.8080 C   0  0  0  0  0  0  0  0  0  1  0  0
   -7.7310    4.0530    5.7140 C   0  0  0  0  0  0  0  0  0  2  0  0
   -6.4520    5.6300    6.8680 N   0  0  0  0  0  0  0  0  0  0  0  0
   -6.2260    6.5240    7.8670 N   0  0  0  0  0  0  0  0  0  0  0  0
   -7.1930    6.7500    8.7820 C   0  0  0  0  0  0  0  0  0  0  0  0
   -8.4240    6.1170    8.7580 C   0  0  0  0  0  0  0  0  0  0  0  0
   -9.3950    6.3570    9.7450 N   0  0  0  0  0  0  0  0  0  0  0  0
  -10.5620    5.6840    9.7600 C   0  0  0  0  0  0  0  0  0  0  0  0
  -11.5770    5.6820   10.5960 N   0  0  0  0  0  0  0  0  0  0  0  0
  -12.4690    4.7490   10.1080 N   0  0  0  0  0  0  0  0  0  0  0  0
  -12.0160    4.1880    8.9920 N   0  0  0  0  0  0  0  0  0  0  0  0
  -10.8400    4.7900    8.7610 N   0  0  0  0  0  0  0  0  0  0  0  0
   -9.9950    4.4790    7.6090 C   0  0  0  0  0  0  0  0  0  0  0  0
   -8.6630    5.2070    7.7200 C   0  0  0  0  0  0  0  0  0  0  0  0
  -10.7490    4.8610    6.3730 C   0  0  0  0  0  0  0  0  0  0  0  0
  -11.0350    6.2020    6.1170 C   0  0  0  0  0  0  0  0  0  0  0  0
  -11.7370    6.5580    4.9650 C   0  0  0  0  0  0  0  0  0  0  0  0
  -12.1550    5.5730    4.0710 C   0  0  0  0  0  0  0  0  0  0  0  0
  -11.8700    4.2310    4.3270 C   0  0  0  0  0  0  0  0  0  0  0  0
  -11.1660    3.8760    5.4790 C   0  0  0  0  0  0  0  0  0  0  0  0
  -12.0160    7.8660    4.7150 O   0  0  0  0  0  0  0  0  0  0  0  0
   -6.8990    7.6510    9.7710 O   0  0  0  0  0  0  0  0  0  0  0  0
   -6.9297    2.9079    5.4837 C   0  0  0  0  0  0  0  0  0  0  0  0
   -5.7300    2.5502    6.3201 C   0  0  0  0  0  0  0  0  0  0  0  0
   -5.5539    1.0565    6.4339 C   0  0  0  0  0  0  0  0  0  0  0  0
   -4.4126    0.4284    5.9034 C   0  0  0  0  0  0  0  0  0  0  0  0
   -4.2372   -0.9499    6.0519 C   0  0  0  0  0  0  0  0  0  0  0  0
   -5.1973   -1.7120    6.7266 C   0  0  0  0  0  0  0  0  0  0  0  0
   -6.3367   -1.0965    7.2528 C   0  0  0  0  0  0  0  0  0  0  0  0
   -6.5175    0.2828    7.1070 C   0  0  0  0  0  0  0  0  0  0  0  0
   -7.3796    2.1115    4.0556 S   0  0  0  0  0  0  0  0  0  0  0  0
   -8.6820    3.1128    3.7184 C   0  0  0  0  0  0  0  0  0  0  0  0
   -9.5484    3.0489    2.6288 C   0  0  0  0  0  0  0  0  0  0  0  0
  -10.5446    4.0281    2.5135 C   0  0  0  0  0  0  0  0  0  0  0  0
  -10.6525    5.0450    3.4805 C   0  0  0  0  0  0  0  0  0  0  0  0
   -9.7659    5.0906    4.5715 C   0  0  0  0  0  0  0  0  0  0  0  0
   -8.7801    4.1010    4.6910 C   0  0  0  0  0  0  0  0  0  0  0  0
  1  3  4  0
  1 14  4  0
  1  2  1  0
  3  4  4  0
  4  5  4  0
  5  6  4  0
  5 22  1  0
  6  7  1  0
  6 14  4  0
  7  8  1  0
  8  9  4  0
  8 12  4  0
  9 10  4  0
 10 11  4  0
 11 12  4  0
 12 13  1  0
 13 14  1  0
 13 15  1  6
 15 16  4  0
 15 20  4  0
 16 17  4  0
 17 18  4  0
 17 21  1  0
 18 19  4  0
 19 20  4  0
 23 24  1  0
 24 25  1  0
 25 26  4  0
 26 27  4  0
 27 28  4  0
 28 29  4  0
 29 30  4  0
 23 31  4  0
 31 32  4  0
 32 33  4  0
 33 34  4  0
 34 35  4  0
 35 36  4  0
 36 37  4  0
 30 25  4  0
 37 32  4  0
  2 23  4  0
  2 37  4  0
M  END
$$$$

     RDKit          3D

 37 43  0  0  0  0  0  0  0  0999 V2000
   -7.6410    4.9930    6.8080 C   0  0  0  0  0  0  0  0  0  1  0  0
   -7.7310    4.0530    5.7140 C   0  0  0  0  0  0  0  0  0  2  0  0
   -6.4520    5.6300    6.8680 N   0  0  0  0  0  0  0  0  0  0  0  0
   -6.2260    6.5240    7.8670 N   0  0  0  0  0  0  0  0  0  0  0  0
   -7.1930    6.7500    8.7820 C   0  0  0  0  0  0  0  0  0  0  0  0
   -8.4240    6.1170    8.7580 C   0  0  0  0  0  0  0  0  0  0  0  0
   -9.3950    6.3570    9.7450 N   0  0  0  0  0  0  0  0  0  0  0  0
  -10.5620    5.6840    9.7600 C   0  0  0  0  0  0  0  0  0  0  0  0
  -11.5770    5.6820   10.5960 N   0  0  0  0  0  0  0  0  0  0  0  0
  -12.4690    4.7490   10.1080 N   0  0  0  0  0  0  0  0  0  0  0  0
  -12.0160    4.1880    8.9920 N   0  0  0  0  0  0  0  0  0  0  0  0
  -10.8400    4.7900    8.7610 N   0  0  0  0  0  0  0  0  0  0  0  0
   -9.9950    4.4790    7.6090 C   0  0  0  0  0  0  0  0  0  0  0  0
   -8.6630    5.2070    7.7200 C   0  0  0  0  0  0  0  0  0  0  0  0
  -10.7490    4.8610    6.3730 C   0  0  0  0  0  0  0  0  0  0  0  0
  -11.0350    6.2020    6.1170 C   0  0  0  0  0  0  0  0  0  0  0  0
  -11.7370    6.5580    4.9650 C   0  0  0  0  0  0  0  0  0  0  0  0
  -12.1550    5.5730    4.0710 C   0  0  0  0  0  0  0  0  0  0  0  0
  -11.8700    4.2310    4.3270 C   0  0  0  0  0  0  0  0  0  0  0  0
  -11.1660    3.8760    5.4790 C   0  0  0  0  0  0  0  0  0  0  0  0
  -12.0160    7.8660    4.7150 O   0  0  0  0  0  0  0  0  0  0  0  0
   -6.8990    7.6510    9.7710 O   0  0  0  0  0  0  0  0  0  0  0  0
   -8.7652    4.1257    4.6864 C   0  0  0  0  0  0  0  0  0  0  0  0
   -9.7618    5.2515    4.5696 C   0  0  0  0  0  0  0  0  0  0  0  0
  -10.3774    5.3367    3.1963 C   0  0  0  0  0  0  0  0  0  0  0  0
  -11.7324    5.0244    3.0013 C   0  0  0  0  0  0  0  0  0  0  0  0
  -12.3022    5.1116    1.7285 C   0  0  0  0  0  0  0  0  0  0  0  0
  -11.5266    5.5189    0.6376 C   0  0  0  0  0  0  0  0  0  0  0  0
  -10.1762    5.8354    0.8207 C   0  0  0  0  0  0  0  0  0  0  0  0
   -9.6032    5.7515    2.0952 C   0  0  0  0  0  0  0  0  0  0  0  0
   -8.6907    2.7650    3.6780 S   0  0  0  0  0  0  0  0  0  0  0  0
   -7.4032    2.0468    4.4742 C   0  0  0  0  0  0  0  0  0  0  0  0
   -6.7767    0.8404    4.1703 C   0  0  0  0  0  0  0  0  0  0  0  0
   -5.7187    0.4189    4.9881 C   0  0  0  0  0  0  0  0  0  0  0  0
   -5.3131    1.2011    6.0855 C   0  0  0  0  0  0  0  0  0  0  0  0
   -5.9628    2.4132    6.3743 C   0  0  0  0  0  0  0  0  0  0  0  0
   -7.0147    2.8345    5.5505 C   0  0  0  0  0  0  0  0  0  0  0  0
  1  3  4  0
  1 14  4  0
  1  2  1  0
  3  4  4  0
  4  5  4  0
  5  6  4  0
  5 22  1  0
  6  7  1  0
  6 14  4  0
  7  8  1  0
  8  9  4  0
  8 12  4  0
  9 10  4  0
 10 11  4  0
 11 12  4  0
 12 13  1  0
 13 14  1  0
 13 15  1  6
 15 16  4  0
 15 20  4  0
 16 17  4  0
 17 18  4  0
 17 21  1  0
 18 19  4  0
 19 20  4  0
 23 24  1  0
 24 25  1  0
 25 26  4  0
 26 27  4  0
 27 28  4  0
 28 29  4  0
 29 30  4  0
 23 31  4  0
 31 32  4  0
 32 33  4  0
 33 34  4  0
 34 35  4  0
 35 36  4  0
 36 37  4  0
 30 25  4  0
 37 32  4  0
  2 23  4  0
  2 37  4  0
M  END
$$$$

     RDKit          3D

 37 43  0  0  0  0  0  0  0  0999 V2000
   -7.6410    4.9930    6.8080 C   0  0  0  0  0  0  0  0  0  1  0  0
   -7.7310    4.0530    5.7140 C   0  0  0  0  0  0  0  0  0  2  0  0
   -6.4520    5.6300    6.8680 N   0  0  0  0  0  0  0  0  0  0  0  0
   -6.2260    6.5240    7.8670 N   0  0  0  0  0  0  0  0  0  0  0  0
   -7.1930    6.7500    8.7820 C   0  0  0  0  0  0  0  0  0  0  0  0
   -8.4240    6.1170    8.7580 C   0  0  0  0  0  0  0  0  0  0  0  0
   -9.3950    6.3570    9.7450 N   0  0  0  0  0  0  0  0  0  0  0  0
  -10.5620    5.6840    9.7600 C   0  0  0  0  0  0  0  0  0  0  0  0
  -11.5770    5.6820   10.5960 N   0  0  0  0  0  0  0  0  0  0  0  0
  -12.4690    4.7490   10.1080 N   0  0  0  0  0  0  0  0  0  0  0  0
  -12.0160    4.1880    8.9920 N   0  0  0  0  0  0  0  0  0  0  0  0
  -10.8400    4.7900    8.7610 N   0  0  0  0  0  0  0  0  0  0  0  0
   -9.9950    4.4790    7.6090 C   0  0  0  0  0  0  0  0  0  0  0  0
   -8.6630    5.2070    7.7200 C   0  0  0  0  0  0  0  0  0  0  0  0
  -10.7490    4.8610    6.3730 C   0  0  0  0  0  0  0  0  0  0  0  0
  -11.0350    6.2020    6.1170 C   0  0  0  0  0  0  0  0  0  0  0  0
  -11.7370    6.5580    4.9650 C   0  0  0  0  0  0  0  0  0  0  0  0
  -12.1550    5.5730    4.0710 C   0  0  0  0  0  0  0  0  0  0  0  0
  -11.8700    4.2310    4.3270 C   0  0  0  0  0  0  0  0  0  0  0  0
  -11.1660    3.8760    5.4790 C   0  0  0  0  0  0  0  0  0  0  0  0
  -12.0160    7.8660    4.7150 O   0  0  0  0  0  0  0  0  0  0  0  0
   -6.8990    7.6510    9.7710 O   0  0  0  0  0  0  0  0  0  0  0  0
   -8.7665    4.1069    4.6849 C   0  0  0  0  0  0  0  0  0  0  0  0
   -9.8046    5.1902    4.5407 C   0  0  0  0  0  0  0  0  0  0  0  0
   -9.7752    5.7954    3.1630 C   0  0  0  0  0  0  0  0  0  0  0  0
  -10.8837    5.6786    2.3049 C   0  0  0  0  0  0  0  0  0  0  0  0
  -10.8515    6.2584    1.0311 C   0  0  0  0  0  0  0  0  0  0  0  0
   -9.7196    6.9586    0.6086 C   0  0  0  0  0  0  0  0  0  0  0  0
   -8.6150    7.0802    1.4553 C   0  0  0  0  0  0  0  0  0  0  0  0
   -8.6426    6.5084    2.7300 C   0  0  0  0  0  0  0  0  0  0  0  0
   -8.5768    2.8295    3.5950 S   0  0  0  0  0  0  0  0  0  0  0  0
   -7.2649    2.1429    4.3787 C   0  0  0  0  0  0  0  0  0  0  0  0
   -6.5511    1.0036    4.0162 C   0  0  0  0  0  0  0  0  0  0  0  0
   -5.4823    0.6009    4.8337 C   0  0  0  0  0  0  0  0  0  0  0  0
   -5.1619    1.3308    5.9933 C   0  0  0  0  0  0  0  0  0  0  0  0
   -5.8930    2.4816    6.3357 C   0  0  0  0  0  0  0  0  0  0  0  0
   -6.9464    2.8903    5.5034 C   0  0  0  0  0  0  0  0  0  0  0  0
  1  3  4  0
  1 14  4  0
  1  2  1  0
  3  4  4  0
  4  5  4  0
  5  6  4  0
  5 22  1  0
  6  7  1  0
  6 14  4  0
  7  8  1  0
  8  9  4  0
  8 12  4  0
  9 10  4  0
 10 11  4  0
 11 12  4  0
 12 13  1  0
 13 14  1  0
 13 15  1  6
 15 16  4  0
 15 20  4  0
 16 17  4  0
 17 18  4  0
 17 21  1  0
 18 19  4  0
 19 20  4  0
 23 24  1  0
 24 25  1  0
 25 26  4  0
 26 27  4  0
 27 28  4  0
 28 29  4  0
 29 30  4  0
 23 31  4  0
 31 32  4  0
 32 33  4  0
 33 34  4  0
 34 35  4  0
 35 36  4  0
 36 37  4  0
 30 25  4  0
 37 32  4  0
  2 23  4  0
  2 37  4  0
M  END
$$$$

     RDKit          3D

 37 43  0  0  0  0  0  0  0  0999 V2000
   -7.6410    4.9930    6.8080 C   0  0  0  0  0  0  0  0  0  1  0  0
   -7.7310    4.0530    5.7140 C   0  0  0  0  0  0  0  0  0  2  0  0
   -6.4520    5.6300    6.8680 N   0  0  0  0  0  0  0  0  0  0  0  0
   -6.2260    6.5240    7.8670 N   0  0  0  0  0  0  0  0  0  0  0  0
   -7.1930    6.7500    8.7820 C   0  0  0  0  0  0  0  0  0  0  0  0
   -8.4240    6.1170    8.7580 C   0  0  0  0  0  0  0  0  0  0  0  0
   -9.3950    6.3570    9.7450 N   0  0  0  0  0  0  0  0  0  0  0  0
  -10.5620    5.6840    9.7600 C   0  0  0  0  0  0  0  0  0  0  0  0
  -11.5770    5.6820   10.5960 N   0  0  0  0  0  0  0  0  0  0  0  0
  -12.4690    4.7490   10.1080 N   0  0  0  0  0  0  0  0  0  0  0  0
  -12.0160    4.1880    8.9920 N   0  0  0  0  0  0  0  0  0  0  0  0
  -10.8400    4.7900    8.7610 N   0  0  0  0  0  0  0  0  0  0  0  0
   -9.9950    4.4790    7.6090 C   0  0  0  0  0  0  0  0  0  0  0  0
   -8.6630    5.2070    7.7200 C   0  0  0  0  0  0  0  0  0  0  0  0
  -10.7490    4.8610    6.3730 C   0  0  0  0  0  0  0  0  0  0  0  0
  -11.0350    6.2020    6.1170 C   0  0  0  0  0  0  0  0  0  0  0  0
  -11.7370    6.5580    4.9650 C   0  0  0  0  0  0  0  0  0  0  0  0
  -12.1550    5.5730    4.0710 C   0  0  0  0  0  0  0  0  0  0  0  0
  -11.8700    4.2310    4.3270 C   0  0  0  0  0  0  0  0  0  0  0  0
  -11.1660    3.8760    5.4790 C   0  0  0  0  0  0  0  0  0  0  0  0
  -12.0160    7.8660    4.7150 O   0  0  0  0  0  0  0  0  0  0  0  0
   -6.8990    7.6510    9.7710 O   0  0  0  0  0  0  0  0  0  0  0  0
   -7.0040    2.8463    5.5334 C   0  0  0  0  0  0  0  0  0  0  0  0
   -5.9328    2.3493    6.4648 C   0  0  0  0  0  0  0  0  0  0  0  0
   -4.6841    1.9699    5.7105 C   0  0  0  0  0  0  0  0  0  0  0  0
   -3.9806    2.9362    4.9707 C   0  0  0  0  0  0  0  0  0  0  0  0
   -2.8102    2.5892    4.2902 C   0  0  0  0  0  0  0  0  0  0  0  0
   -2.3322    1.2764    4.3409 C   0  0  0  0  0  0  0  0  0  0  0  0
   -3.0224    0.3096    5.0768 C   0  0  0  0  0  0  0  0  0  0  0  0
   -4.1966    0.6511    5.7542 C   0  0  0  0  0  0  0  0  0  0  0  0
   -7.5722    1.9648    4.2035 S   0  0  0  0  0  0  0  0  0  0  0  0
   -8.7833    3.0491    3.7984 C   0  0  0  0  0  0  0  0  0  0  0  0
   -9.6941    2.9614    2.7478 C   0  0  0  0  0  0  0  0  0  0  0  0
  -10.6329    3.9912    2.5947 C   0  0  0  0  0  0  0  0  0  0  0  0
  -10.6416    5.0800    3.4860 C   0  0  0  0  0  0  0  0  0  0  0  0
   -9.7117    5.1490    4.5373 C   0  0  0  0  0  0  0  0  0  0  0  0
   -8.7829    4.1098    4.6941 C   0  0  0  0  0  0  0  0  0  0  0  0
  1  3  4  0
  1 14  4  0
  1  2  1  0
  3  4  4  0
  4  5  4  0
  5  6  4  0
  5 22  1  0
  6  7  1  0
  6 14  4  0
  7  8  1  0
  8  9  4  0
  8 12  4  0
  9 10  4  0
 10 11  4  0
 11 12  4  0
 12 13  1  0
 13 14  1  0
 13 15  1  6
 15 16  4  0
 15 20  4  0
 16 17  4  0
 17 18  4  0
 17 21  1  0
 18 19  4  0
 19 20  4  0
 23 24  1  0
 24 25  1  0
 25 26  4  0
 26 27  4  0
 27 28  4  0
 28 29  4  0
 29 30  4  0
 23 31  4  0
 31 32  4  0
 32 33  4  0
 33 34  4  0
 34 35  4  0
 35 36  4  0
 36 37  4  0
 30 25  4  0
 37 32  4  0
  2 23  4  0
  2 37  4  0
M  END
$$$$

     RDKit          3D

 37 43  0  0  0  0  0  0  0  0999 V2000
   -7.6410    4.9930    6.8080 C   0  0  0  0  0  0  0  0  0  1  0  0
   -7.7310    4.0530    5.7140 C   0  0  0  0  0  0  0  0  0  2  0  0
   -6.4520    5.6300    6.8680 N   0  0  0  0  0  0  0  0  0  0  0  0
   -6.2260    6.5240    7.8670 N   0  0  0  0  0  0  0  0  0  0  0  0
   -7.1930    6.7500    8.7820 C   0  0  0  0  0  0  0  0  0  0  0  0
   -8.4240    6.1170    8.7580 C   0  0  0  0  0  0  0  0  0  0  0  0
   -9.3950    6.3570    9.7450 N   0  0  0  0  0  0  0  0  0  0  0  0
  -10.5620    5.6840    9.7600 C   0  0  0  0  0  0  0  0  0  0  0  0
  -11.5770    5.6820   10.5960 N   0  0  0  0  0  0  0  0  0  0  0  0
  -12.4690    4.7490   10.1080 N   0  0  0  0  0  0  0  0  0  0  0  0
  -12.0160    4.1880    8.9920 N   0  0  0  0  0  0  0  0  0  0  0  0
  -10.8400    4.7900    8.7610 N   0  0  0  0  0  0  0  0  0  0  0  0
   -9.9950    4.4790    7.6090 C   0  0  0  0  0  0  0  0  0  0  0  0
   -8.6630    5.2070    7.7200 C   0  0  0  0  0  0  0  0  0  0  0  0
  -10.7490    4.8610    6.3730 C   0  0  0  0  0  0  0  0  0  0  0  0
  -11.0350    6.2020    6.1170 C   0  0  0  0  0  0  0  0  0  0  0  0
  -11.7370    6.5580    4.9650 C   0  0  0  0  0  0  0  0  0  0  0  0
  -12.1550    5.5730    4.0710 C   0  0  0  0  0  0  0  0  0  0  0  0
  -11.8700    4.2310    4.3270 C   0  0  0  0  0  0  0  0  0  0  0  0
  -11.1660    3.8760    5.4790 C   0  0  0  0  0  0  0  0  0  0  0  0
  -12.0160    7.8660    4.7150 O   0  0  0  0  0  0  0  0  0  0  0  0
   -6.8990    7.6510    9.7710 O   0  0  0  0  0  0  0  0  0  0  0  0
   -6.9632    2.8790    5.4980 C   0  0  0  0  0  0  0  0  0  0  0  0
   -5.8202    2.4287    6.3643 C   0  0  0  0  0  0  0  0  0  0  0  0
   -6.1676    1.1442    7.0688 C   0  0  0  0  0  0  0  0  0  0  0  0
   -7.1465    1.1355    8.0792 C   0  0  0  0  0  0  0  0  0  0  0  0
   -7.4697   -0.0565    8.7360 C   0  0  0  0  0  0  0  0  0  0  0  0
   -6.8230   -1.2458    8.3877 C   0  0  0  0  0  0  0  0  0  0  0  0
   -5.8512   -1.2450    7.3831 C   0  0  0  0  0  0  0  0  0  0  0  0
   -5.5225   -0.0559    6.7245 C   0  0  0  0  0  0  0  0  0  0  0  0
   -7.5317    1.9868    4.1790 S   0  0  0  0  0  0  0  0  0  0  0  0
   -8.8117    3.0081    3.8323 C   0  0  0  0  0  0  0  0  0  0  0  0
   -9.7558    2.8810    2.8169 C   0  0  0  0  0  0  0  0  0  0  0  0
  -10.7447    3.8678    2.7012 C   0  0  0  0  0  0  0  0  0  0  0  0
  -10.7629    4.9584    3.5883 C   0  0  0  0  0  0  0  0  0  0  0  0
   -9.8011    5.0652    4.6072 C   0  0  0  0  0  0  0  0  0  0  0  0
   -8.8266    4.0652    4.7319 C   0  0  0  0  0  0  0  0  0  0  0  0
  1  3  4  0
  1 14  4  0
  1  2  1  0
  3  4  4  0
  4  5  4  0
  5  6  4  0
  5 22  1  0
  6  7  1  0
  6 14  4  0
  7  8  1  0
  8  9  4  0
  8 12  4  0
  9 10  4  0
 10 11  4  0
 11 12  4  0
 12 13  1  0
 13 14  1  0
 13 15  1  6
 15 16  4  0
 15 20  4  0
 16 17  4  0
 17 18  4  0
 17 21  1  0
 18 19  4  0
 19 20  4  0
 23 24  1  0
 24 25  1  0
 25 26  4  0
 26 27  4  0
 27 28  4  0
 28 29  4  0
 29 30  4  0
 23 31  4  0
 31 32  4  0
 32 33  4  0
 33 34  4  0
 34 35  4  0
 35 36  4  0
 36 37  4  0
 30 25  4  0
 37 32  4  0
  2 23  4  0
  2 37  4  0
M  END
$$$$

     RDKit          3D

 37 43  0  0  0  0  0  0  0  0999 V2000
   -7.6410    4.9930    6.8080 C   0  0  0  0  0  0  0  0  0  1  0  0
   -7.7310    4.0530    5.7140 C   0  0  0  0  0  0  0  0  0  2  0  0
   -6.4520    5.6300    6.8680 N   0  0  0  0  0  0  0  0  0  0  0  0
   -6.2260    6.5240    7.8670 N   0  0  0  0  0  0  0  0  0  0  0  0
   -7.1930    6.7500    8.7820 C   0  0  0  0  0  0  0  0  0  0  0  0
   -8.4240    6.1170    8.7580 C   0  0  0  0  0  0  0  0  0  0  0  0
   -9.3950    6.3570    9.7450 N   0  0  0  0  0  0  0  0  0  0  0  0
  -10.5620    5.6840    9.7600 C   0  0  0  0  0  0  0  0  0  0  0  0
  -11.5770    5.6820   10.5960 N   0  0  0  0  0  0  0  0  0  0  0  0
  -12.4690    4.7490   10.1080 N   0  0  0  0  0  0  0  0  0  0  0  0
  -12.0160    4.1880    8.9920 N   0  0  0  0  0  0  0  0  0  0  0  0
  -10.8400    4.7900    8.7610 N   0  0  0  0  0  0  0  0  0  0  0  0
   -9.9950    4.4790    7.6090 C   0  0  0  0  0  0  0  0  0  0  0  0
   -8.6630    5.2070    7.7200 C   0  0  0  0  0  0  0  0  0  0  0  0
  -10.7490    4.8610    6.3730 C   0  0  0  0  0  0  0  0  0  0  0  0
  -11.0350    6.2020    6.1170 C   0  0  0  0  0  0  0  0  0  0  0  0
  -11.7370    6.5580    4.9650 C   0  0  0  0  0  0  0  0  0  0  0  0
  -12.1550    5.5730    4.0710 C   0  0  0  0  0  0  0  0  0  0  0  0
  -11.8700    4.2310    4.3270 C   0  0  0  0  0  0  0  0  0  0  0  0
  -11.1660    3.8760    5.4790 C   0  0  0  0  0  0  0  0  0  0  0  0
  -12.0160    7.8660    4.7150 O   0  0  0  0  0  0  0  0  0  0  0  0
   -6.8990    7.6510    9.7710 O   0  0  0  0  0  0  0  0  0  0  0  0
   -8.7685    4.1005    4.6869 C   0  0  0  0  0  0  0  0  0  0  0  0
   -9.7130    5.2414    4.4544 C   0  0  0  0  0  0  0  0  0  0  0  0
   -9.0780    6.2598    3.5485 C   0  0  0  0  0  0  0  0  0  0  0  0
   -8.3688    7.3429    4.0905 C   0  0  0  0  0  0  0  0  0  0  0  0
   -7.7634    8.2769    3.2467 C   0  0  0  0  0  0  0  0  0  0  0  0
   -7.8594    8.1363    1.8582 C   0  0  0  0  0  0  0  0  0  0  0  0
   -8.5578    7.0574    1.3114 C   0  0  0  0  0  0  0  0  0  0  0  0
   -9.1644    6.1209    2.1521 C   0  0  0  0  0  0  0  0  0  0  0  0
   -8.6143    2.7876    3.6287 S   0  0  0  0  0  0  0  0  0  0  0  0
   -7.3332    2.0773    4.4434 C   0  0  0  0  0  0  0  0  0  0  0  0
   -6.6752    0.8885    4.1335 C   0  0  0  0  0  0  0  0  0  0  0  0
   -5.6348    0.4682    4.9759 C   0  0  0  0  0  0  0  0  0  0  0  0
   -5.2794    1.2333    6.1015 C   0  0  0  0  0  0  0  0  0  0  0  0
   -5.9553    2.4308    6.3931 C   0  0  0  0  0  0  0  0  0  0  0  0
   -6.9902    2.8512    5.5445 C   0  0  0  0  0  0  0  0  0  0  0  0
  1  3  4  0
  1 14  4  0
  1  2  1  0
  3  4  4  0
  4  5  4  0
  5  6  4  0
  5 22  1  0
  6  7  1  0
  6 14  4  0
  7  8  1  0
  8  9  4  0
  8 12  4  0
  9 10  4  0
 10 11  4  0
 11 12  4  0
 12 13  1  0
 13 14  1  0
 13 15  1  6
 15 16  4  0
 15 20  4  0
 16 17  4  0
 17 18  4  0
 17 21  1  0
 18 19  4  0
 19 20  4  0
 23 24  1  0
 24 25  1  0
 25 26  4  0
 26 27  4  0
 27 28  4  0
 28 29  4  0
 29 30  4  0
 23 31  4  0
 31 32  4  0
 32 33  4  0
 33 34  4  0
 34 35  4  0
 35 36  4  0
 36 37  4  0
 30 25  4  0
 37 32  4  0
  2 23  4  0
  2 37  4  0
M  END
$$$$

     RDKit          3D

 45 51  0  0  0  0  0  0  0  0999 V2000
   -7.6410    4.9930    6.8080 C   0  0  0  0  0  0  0  0  0  1  0  0
   -7.7310    4.0530    5.7140 C   0  0  0  0  0  0  0  0  0  2  0  0
   -6.4520    5.6300    6.8680 N   0  0  0  0  0  0  0  0  0  0  0  0
   -6.2260    6.5240    7.8670 N   0  0  0  0  0  0  0  0  0  0  0  0
   -7.1930    6.7500    8.7820 C   0  0  0  0  0  0  0  0  0  0  0  0
   -8.4240    6.1170    8.7580 C   0  0  0  0  0  0  0  0  0  0  0  0
   -9.3950    6.3570    9.7450 N   0  0  0  0  0  0  0  0  0  0  0  0
  -10.5620    5.6840    9.7600 C   0  0  0  0  0  0  0  0  0  0  0  0
  -11.5770    5.6820   10.5960 N   0  0  0  0  0  0  0  0  0  0  0  0
  -12.4690    4.7490   10.1080 N   0  0  0  0  0  0  0  0  0  0  0  0
  -12.0160    4.1880    8.9920 N   0  0  0  0  0  0  0  0  0  0  0  0
  -10.8400    4.7900    8.7610 N   0  0  0  0  0  0  0  0  0  0  0  0
   -9.9950    4.4790    7.6090 C   0  0  0  0  0  0  0  0  0  0  0  0
   -8.6630    5.2070    7.7200 C   0  0  0  0  0  0  0  0  0  0  0  0
  -10.7490    4.8610    6.3730 C   0  0  0  0  0  0  0  0  0  0  0  0
  -11.0350    6.2020    6.1170 C   0  0  0  0  0  0  0  0  0  0  0  0
  -11.7370    6.5580    4.9650 C   0  0  0  0  0  0  0  0  0  0  0  0
  -12.1550    5.5730    4.0710 C   0  0  0  0  0  0  0  0  0  0  0  0
  -11.8700    4.2310    4.3270 C   0  0  0  0  0  0  0  0  0  0  0  0
  -11.1660    3.8760    5.4790 C   0  0  0  0  0  0  0  0  0  0  0  0
  -12.0160    7.8660    4.7150 O   0  0  0  0  0  0  0  0  0  0  0  0
   -6.8990    7.6510    9.7710 O   0  0  0  0  0  0  0  0  0  0  0  0
   -6.8566    3.0733    5.3968 N   0  0  0  0  0  0  0  0  0  0  0  0
   -7.2920    2.4115    4.3352 N   0  0  0  0  0  0  0  0  0  0  0  0
   -8.4716    2.9578    3.9902 C   0  0  0  0  0  0  0  0  0  0  0  0
   -9.4246    2.4165    2.5569 S   0  0  0  0  0  0  0  0  0  0  0  0
   -8.8190    3.9635    4.8197 N   0  0  0  0  0  0  0  0  0  0  0  0
   -9.9272    4.9122    4.6671 C   0  0  0  0  0  0  0  0  0  0  0  0
   -9.4045    6.2483    4.2359 C   0  0  0  0  0  0  0  0  0  0  0  0
   -9.4925    7.2340    5.0181 O   0  0  0  0  0  0  0  0  0  0  0  0
   -8.7934    6.3975    2.9459 N   0  0  0  0  0  0  0  0  0  0  0  0
   -8.1291    7.6418    2.5365 C   0  0  0  0  0  0  0  0  0  0  0  0
   -9.1125    8.7873    2.3867 C   0  0  0  0  0  0  0  0  0  0  0  0
  -10.4503    8.5697    2.0000 C   0  0  0  0  0  0  0  0  0  0  0  0
  -11.3233    9.6495    1.8388 C   0  0  0  0  0  0  0  0  0  0  0  0
  -10.8699   10.9545    2.0462 C   0  0  0  0  0  0  0  0  0  0  0  0
   -9.5423   11.1831    2.4152 C   0  0  0  0  0  0  0  0  0  0  0  0
   -8.6654   10.1071    2.5799 C   0  0  0  0  0  0  0  0  0  0  0  0
   -7.3638    7.4474    1.2425 C   0  0  0  0  0  0  0  0  0  0  0  0
   -5.9811    7.7015    1.1960 C   0  0  0  0  0  0  0  0  0  0  0  0
   -5.2747    7.5629   -0.0015 C   0  0  0  0  0  0  0  0  0  0  0  0
   -5.9351    7.1540   -1.1692 C   0  0  0  0  0  0  0  0  0  0  0  0
   -5.1883    7.0449   -2.4652 C   0  0  0  0  0  0  0  0  0  0  0  0
   -7.3168    6.9191   -1.1325 C   0  0  0  0  0  0  0  0  0  0  0  0
   -8.0250    7.0586    0.0635 C   0  0  0  0  0  0  0  0  0  0  0  0
  1  3  4  0
  1 14  4  0
  1  2  1  0
  3  4  4  0
  4  5  4  0
  5  6  4  0
  5 22  1  0
  6  7  1  0
  6 14  4  0
  7  8  1  0
  8  9  4  0
  8 12  4  0
  9 10  4  0
 10 11  4  0
 11 12  4  0
 12 13  1  0
 13 14  1  0
 13 15  1  6
 15 16  4  0
 15 20  4  0
 16 17  4  0
 17 18  4  0
 17 21  1  0
 18 19  4  0
 19 20  4  0
 23 24  4  0
 24 25  4  0
 25 26  1  0
 25 27  4  0
 27 28  1  0
 28 29  1  0
 29 30  2  0
 29 31  1  0
 31 32  1  0
 32 33  1  0
 33 34  4  0
 34 35  4  0
 35 36  4  0
 36 37  4  0
 37 38  4  0
 32 39  1  0
 39 40  4  0
 40 41  4  0
 41 42  4  0
 42 43  1  0
 42 44  4  0
 44 45  4  0
 38 33  4  0
 45 39  4  0
  2 23  4  0
  2 27  4  0
M  CHG  1  26  -1
M  END
$$$$

     RDKit          3D

 45 51  0  0  0  0  0  0  0  0999 V2000
   -7.6410    4.9930    6.8080 C   0  0  0  0  0  0  0  0  0  1  0  0
   -7.7310    4.0530    5.7140 C   0  0  0  0  0  0  0  0  0  2  0  0
   -6.4520    5.6300    6.8680 N   0  0  0  0  0  0  0  0  0  0  0  0
   -6.2260    6.5240    7.8670 N   0  0  0  0  0  0  0  0  0  0  0  0
   -7.1930    6.7500    8.7820 C   0  0  0  0  0  0  0  0  0  0  0  0
   -8.4240    6.1170    8.7580 C   0  0  0  0  0  0  0  0  0  0  0  0
   -9.3950    6.3570    9.7450 N   0  0  0  0  0  0  0  0  0  0  0  0
  -10.5620    5.6840    9.7600 C   0  0  0  0  0  0  0  0  0  0  0  0
  -11.5770    5.6820   10.5960 N   0  0  0  0  0  0  0  0  0  0  0  0
  -12.4690    4.7490   10.1080 N   0  0  0  0  0  0  0  0  0  0  0  0
  -12.0160    4.1880    8.9920 N   0  0  0  0  0  0  0  0  0  0  0  0
  -10.8400    4.7900    8.7610 N   0  0  0  0  0  0  0  0  0  0  0  0
   -9.9950    4.4790    7.6090 C   0  0  0  0  0  0  0  0  0  0  0  0
   -8.6630    5.2070    7.7200 C   0  0  0  0  0  0  0  0  0  0  0  0
  -10.7490    4.8610    6.3730 C   0  0  0  0  0  0  0  0  0  0  0  0
  -11.0350    6.2020    6.1170 C   0  0  0  0  0  0  0  0  0  0  0  0
  -11.7370    6.5580    4.9650 C   0  0  0  0  0  0  0  0  0  0  0  0
  -12.1550    5.5730    4.0710 C   0  0  0  0  0  0  0  0  0  0  0  0
  -11.8700    4.2310    4.3270 C   0  0  0  0  0  0  0  0  0  0  0  0
  -11.1660    3.8760    5.4790 C   0  0  0  0  0  0  0  0  0  0  0  0
  -12.0160    7.8660    4.7150 O   0  0  0  0  0  0  0  0  0  0  0  0
   -6.8990    7.6510    9.7710 O   0  0  0  0  0  0  0  0  0  0  0  0
   -6.8563    3.0686    5.4143 N   0  0  0  0  0  0  0  0  0  0  0  0
   -7.2921    2.3855    4.3671 N   0  0  0  0  0  0  0  0  0  0  0  0
   -8.4707    2.9262    4.0103 C   0  0  0  0  0  0  0  0  0  0  0  0
   -9.4500    2.3132    2.6237 S   0  0  0  0  0  0  0  0  0  0  0  0
   -8.8182    3.9504    4.8183 N   0  0  0  0  0  0  0  0  0  0  0  0
   -9.9474    4.8752    4.6540 C   0  0  0  0  0  0  0  0  0  0  0  0
   -9.4831    6.1878    4.0701 C   0  0  0  0  0  0  0  0  0  0  0  0
   -8.7288    6.9194    4.7657 O   0  0  0  0  0  0  0  0  0  0  0  0
   -9.8729    6.6526    2.7649 N   0  0  0  0  0  0  0  0  0  0  0  0
  -10.7604    5.9290    1.8430 C   0  0  0  0  0  0  0  0  0  0  0  0
  -12.1861    5.8642    2.3567 C   0  0  0  0  0  0  0  0  0  0  0  0
  -13.0039    4.7836    1.9806 C   0  0  0  0  0  0  0  0  0  0  0  0
  -14.3317    4.7152    2.4124 C   0  0  0  0  0  0  0  0  0  0  0  0
  -14.8588    5.7264    3.2186 C   0  0  0  0  0  0  0  0  0  0  0  0
  -14.0602    6.8107    3.5902 C   0  0  0  0  0  0  0  0  0  0  0  0
  -12.7320    6.8855    3.1590 C   0  0  0  0  0  0  0  0  0  0  0  0
  -10.7398    6.5651    0.4663 C   0  0  0  0  0  0  0  0  0  0  0  0
  -10.3360    5.8167   -0.6527 C   0  0  0  0  0  0  0  0  0  0  0  0
  -10.3118    6.3975   -1.9239 C   0  0  0  0  0  0  0  0  0  0  0  0
  -10.6955    7.7349   -2.0987 C   0  0  0  0  0  0  0  0  0  0  0  0
  -10.6478    8.3762   -3.4539 C   0  0  0  0  0  0  0  0  0  0  0  0
  -11.0989    8.4859   -0.9862 C   0  0  0  0  0  0  0  0  0  0  0  0
  -11.1274    7.9056    0.2846 C   0  0  0  0  0  0  0  0  0  0  0  0
  1  3  4  0
  1 14  4  0
  1  2  1  0
  3  4  4  0
  4  5  4  0
  5  6  4  0
  5 22  1  0
  6  7  1  0
  6 14  4  0
  7  8  1  0
  8  9  4  0
  8 12  4  0
  9 10  4  0
 10 11  4  0
 11 12  4  0
 12 13  1  0
 13 14  1  0
 13 15  1  6
 15 16  4  0
 15 20  4  0
 16 17  4  0
 17 18  4  0
 17 21  1  0
 18 19  4  0
 19 20  4  0
 23 24  4  0
 24 25  4  0
 25 26  1  0
 25 27  4  0
 27 28  1  0
 28 29  1  0
 29 30  2  0
 29 31  1  0
 31 32  1  0
 32 33  1  0
 33 34  4  0
 34 35  4  0
 35 36  4  0
 36 37  4  0
 37 38  4  0
 32 39  1  0
 39 40  4  0
 40 41  4  0
 41 42  4  0
 42 43  1  0
 42 44  4  0
 44 45  4  0
 38 33  4  0
 45 39  4  0
  2 23  4  0
  2 27  4  0
M  CHG  1  26  -1
M  END
$$$$

     RDKit          3D

 34 39  0  0  0  0  0  0  0  0999 V2000
   -7.6410    4.9930    6.8080 C   0  0  0  0  0  0  0  0  0  1  0  0
   -7.7310    4.0530    5.7140 C   0  0  0  0  0  0  0  0  0  2  0  0
   -6.4520    5.6300    6.8680 N   0  0  0  0  0  0  0  0  0  0  0  0
   -6.2260    6.5240    7.8670 N   0  0  0  0  0  0  0  0  0  0  0  0
   -7.1930    6.7500    8.7820 C   0  0  0  0  0  0  0  0  0  0  0  0
   -8.4240    6.1170    8.7580 C   0  0  0  0  0  0  0  0  0  0  0  0
   -9.3950    6.3570    9.7450 N   0  0  0  0  0  0  0  0  0  0  0  0
  -10.5620    5.6840    9.7600 C   0  0  0  0  0  0  0  0  0  0  0  0
  -11.5770    5.6820   10.5960 N   0  0  0  0  0  0  0  0  0  0  0  0
  -12.4690    4.7490   10.1080 N   0  0  0  0  0  0  0  0  0  0  0  0
  -12.0160    4.1880    8.9920 N   0  0  0  0  0  0  0  0  0  0  0  0
  -10.8400    4.7900    8.7610 N   0  0  0  0  0  0  0  0  0  0  0  0
   -9.9950    4.4790    7.6090 C   0  0  0  0  0  0  0  0  0  0  0  0
   -8.6630    5.2070    7.7200 C   0  0  0  0  0  0  0  0  0  0  0  0
  -10.7490    4.8610    6.3730 C   0  0  0  0  0  0  0  0  0  0  0  0
  -11.0350    6.2020    6.1170 C   0  0  0  0  0  0  0  0  0  0  0  0
  -11.7370    6.5580    4.9650 C   0  0  0  0  0  0  0  0  0  0  0  0
  -12.1550    5.5730    4.0710 C   0  0  0  0  0  0  0  0  0  0  0  0
  -11.8700    4.2310    4.3270 C   0  0  0  0  0  0  0  0  0  0  0  0
  -11.1660    3.8760    5.4790 C   0  0  0  0  0  0  0  0  0  0  0  0
  -12.0160    7.8660    4.7150 O   0  0  0  0  0  0  0  0  0  0  0  0
   -6.8990    7.6510    9.7710 O   0  0  0  0  0  0  0  0  0  0  0  0
   -6.7500    3.1704    5.3998 N   0  0  0  0  0  0  0  0  0  0  0  0
   -6.8350    2.2441    4.4135 C   0  0  0  0  0  0  0  0  0  0  0  0
   -5.7508    1.3989    4.1506 C   0  0  0  0  0  0  0  0  0  0  0  0
   -5.8399    0.4404    3.1355 C   0  0  0  0  0  0  0  0  0  0  0  0
   -4.4803   -0.6185    2.8080 Cl  0  0  0  0  0  0  0  0  0  0  0  0
   -7.0128    0.3257    2.3813 C   0  0  0  0  0  0  0  0  0  0  0  0
   -8.0997    1.1676    2.6377 C   0  0  0  0  0  0  0  0  0  0  0  0
   -8.0176    2.1337    3.6573 C   0  0  0  0  0  0  0  0  0  0  0  0
   -9.0742    3.0109    3.9523 C   0  0  0  0  0  0  0  0  0  0  0  0
  -10.1481    2.9599    3.2909 O   0  0  0  0  0  0  0  0  0  0  0  0
   -8.9402    3.9295    4.9526 N   0  0  0  0  0  0  0  0  0  0  0  0
   -9.9655    4.8234    5.1757 O   0  0  0  0  0  0  0  0  0  0  0  0
  1  3  4  0
  1 14  4  0
  1  2  1  0
  3  4  4  0
  4  5  4  0
  5  6  4  0
  5 22  1  0
  6  7  1  0
  6 14  4  0
  7  8  1  0
  8  9  4  0
  8 12  4  0
  9 10  4  0
 10 11  4  0
 11 12  4  0
 12 13  1  0
 13 14  1  0
 13 15  1  6
 15 16  4  0
 15 20  4  0
 16 17  4  0
 17 18  4  0
 17 21  1  0
 18 19  4  0
 19 20  4  0
 23 24  4  0
 24 25  4  0
 25 26  4  0
 26 27  1  0
 26 28  4  0
 28 29  4  0
 29 30  4  0
 30 31  4  0
 31 32  2  0
 31 33  4  0
 33 34  1  0
 30 24  4  0
  2 23  4  0
  2 33  4  0
M  CHG  1  34  -1
M  END
$$$$

     RDKit          3D

 30 34  0  0  0  0  0  0  0  0999 V2000
   -7.6410    4.9930    6.8080 C   0  0  0  0  0  0  0  0  0  1  0  0
   -7.7310    4.0530    5.7140 C   0  0  0  0  0  0  0  0  0  2  0  0
   -6.4520    5.6300    6.8680 N   0  0  0  0  0  0  0  0  0  0  0  0
   -6.2260    6.5240    7.8670 N   0  0  0  0  0  0  0  0  0  0  0  0
   -7.1930    6.7500    8.7820 C   0  0  0  0  0  0  0  0  0  0  0  0
   -8.4240    6.1170    8.7580 C   0  0  0  0  0  0  0  0  0  0  0  0
   -9.3950    6.3570    9.7450 N   0  0  0  0  0  0  0  0  0  0  0  0
  -10.5620    5.6840    9.7600 C   0  0  0  0  0  0  0  0  0  0  0  0
  -11.5770    5.6820   10.5960 N   0  0  0  0  0  0  0  0  0  0  0  0
  -12.4690    4.7490   10.1080 N   0  0  0  0  0  0  0  0  0  0  0  0
  -12.0160    4.1880    8.9920 N   0  0  0  0  0  0  0  0  0  0  0  0
  -10.8400    4.7900    8.7610 N   0  0  0  0  0  0  0  0  0  0  0  0
   -9.9950    4.4790    7.6090 C   0  0  0  0  0  0  0  0  0  0  0  0
   -8.6630    5.2070    7.7200 C   0  0  0  0  0  0  0  0  0  0  0  0
  -10.7490    4.8610    6.3730 C   0  0  0  0  0  0  0  0  0  0  0  0
  -11.0350    6.2020    6.1170 C   0  0  0  0  0  0  0  0  0  0  0  0
  -11.7370    6.5580    4.9650 C   0  0  0  0  0  0  0  0  0  0  0  0
  -12.1550    5.5730    4.0710 C   0  0  0  0  0  0  0  0  0  0  0  0
  -11.8700    4.2310    4.3270 C   0  0  0  0  0  0  0  0  0  0  0  0
  -11.1660    3.8760    5.4790 C   0  0  0  0  0  0  0  0  0  0  0  0
  -12.0160    7.8660    4.7150 O   0  0  0  0  0  0  0  0  0  0  0  0
   -6.8990    7.6510    9.7710 O   0  0  0  0  0  0  0  0  0  0  0  0
   -6.8698    2.9926    5.3998 C   0  0  0  0  0  0  0  0  0  0  0  0
   -7.1068    2.0456    4.3999 C   0  0  0  0  0  0  0  0  0  0  0  0
   -8.3080    2.0654    3.6868 C   0  0  0  0  0  0  0  0  0  0  0  0
   -8.5338    1.1445    2.7175 F   0  0  0  0  0  0  0  0  0  0  0  0
   -9.2779    3.0299    3.9779 C   0  0  0  0  0  0  0  0  0  0  0  0
  -10.4461    3.0439    3.2890 F   0  0  0  0  0  0  0  0  0  0  0  0
   -9.0444    3.9818    4.9777 C   0  0  0  0  0  0  0  0  0  0  0  0
   -9.9930    4.9171    5.2395 F   0  0  0  0  0  0  0  0  0  0  0  0
  1  3  4  0
  1 14  4  0
  1  2  1  0
  3  4  4  0
  4  5  4  0
  5  6  4  0
  5 22  1  0
  6  7  1  0
  6 14  4  0
  7  8  1  0
  8  9  4  0
  8 12  4  0
  9 10  4  0
 10 11  4  0
 11 12  4  0
 12 13  1  0
 13 14  1  0
 13 15  1  6
 15 16  4  0
 15 20  4  0
 16 17  4  0
 17 18  4  0
 17 21  1  0
 18 19  4  0
 19 20  4  0
 23 24  4  0
 24 25  4  0
 25 26  1  0
 25 27  4  0
 27 28  1  0
 27 29  4  0
 29 30  1  0
  2 23  4  0
  2 29  4  0
M  END
$$$$

     RDKit          3D

 32 37  0  0  0  0  0  0  0  0999 V2000
   -7.6410    4.9930    6.8080 C   0  0  0  0  0  0  0  0  0  1  0  0
   -7.7310    4.0530    5.7140 C   0  0  0  0  0  0  0  0  0  2  0  0
   -6.4520    5.6300    6.8680 N   0  0  0  0  0  0  0  0  0  0  0  0
   -6.2260    6.5240    7.8670 N   0  0  0  0  0  0  0  0  0  0  0  0
   -7.1930    6.7500    8.7820 C   0  0  0  0  0  0  0  0  0  0  0  0
   -8.4240    6.1170    8.7580 C   0  0  0  0  0  0  0  0  0  0  0  0
   -9.3950    6.3570    9.7450 N   0  0  0  0  0  0  0  0  0  0  0  0
  -10.5620    5.6840    9.7600 C   0  0  0  0  0  0  0  0  0  0  0  0
  -11.5770    5.6820   10.5960 N   0  0  0  0  0  0  0  0  0  0  0  0
  -12.4690    4.7490   10.1080 N   0  0  0  0  0  0  0  0  0  0  0  0
  -12.0160    4.1880    8.9920 N   0  0  0  0  0  0  0  0  0  0  0  0
  -10.8400    4.7900    8.7610 N   0  0  0  0  0  0  0  0  0  0  0  0
   -9.9950    4.4790    7.6090 C   0  0  0  0  0  0  0  0  0  0  0  0
   -8.6630    5.2070    7.7200 C   0  0  0  0  0  0  0  0  0  0  0  0
  -10.7490    4.8610    6.3730 C   0  0  0  0  0  0  0  0  0  0  0  0
  -11.0350    6.2020    6.1170 C   0  0  0  0  0  0  0  0  0  0  0  0
  -11.7370    6.5580    4.9650 C   0  0  0  0  0  0  0  0  0  0  0  0
  -12.1550    5.5730    4.0710 C   0  0  0  0  0  0  0  0  0  0  0  0
  -11.8700    4.2310    4.3270 C   0  0  0  0  0  0  0  0  0  0  0  0
  -11.1660    3.8760    5.4790 C   0  0  0  0  0  0  0  0  0  0  0  0
  -12.0160    7.8660    4.7150 O   0  0  0  0  0  0  0  0  0  0  0  0
   -6.8990    7.6510    9.7710 O   0  0  0  0  0  0  0  0  0  0  0  0
   -6.8274    3.0225    5.4464 C   0  0  0  0  0  0  0  0  0  0  0  0
   -7.0195    2.0199    4.4977 C   0  0  0  0  0  0  0  0  0  0  0  0
   -8.2033    1.9605    3.7638 C   0  0  0  0  0  0  0  0  0  0  0  0
   -8.3597    0.9710    2.8464 F   0  0  0  0  0  0  0  0  0  0  0  0
   -9.2060    2.9266    3.9598 C   0  0  0  0  0  0  0  0  0  0  0  0
  -10.3903    2.8837    3.2022 C   0  0  0  0  0  0  0  0  0  0  0  0
  -11.3705    3.8641    3.3671 C   0  0  0  0  0  0  0  0  0  0  0  0
  -11.1777    4.8997    4.2811 C   0  0  0  0  0  0  0  0  0  0  0  0
  -10.0121    4.9537    5.0493 C   0  0  0  0  0  0  0  0  0  0  0  0
   -9.0165    3.9601    4.9194 C   0  0  0  0  0  0  0  0  0  0  0  0
  1  3  4  0
  1 14  4  0
  1  2  1  0
  3  4  4  0
  4  5  4  0
  5  6  4  0
  5 22  1  0
  6  7  1  0
  6 14  4  0
  7  8  1  0
  8  9  4  0
  8 12  4  0
  9 10  4  0
 10 11  4  0
 11 12  4  0
 12 13  1  0
 13 14  1  0
 13 15  1  6
 15 16  4  0
 15 20  4  0
 16 17  4  0
 17 18  4  0
 17 21  1  0
 18 19  4  0
 19 20  4  0
 23 24  4  0
 24 25  4  0
 25 26  1  0
 25 27  4  0
 27 28  4  0
 28 29  4  0
 29 30  4  0
 30 31  4  0
 31 32  4  0
 32 27  4  0
  2 23  4  0
  2 32  4  0
M  END
$$$$

     RDKit          3D

 46 54  0  0  0  0  0  0  0  0999 V2000
   -7.6410    4.9930    6.8080 C   0  0  0  0  0  0  0  0  0  1  0  0
   -7.7310    4.0530    5.7140 C   0  0  0  0  0  0  0  0  0  2  0  0
   -6.4520    5.6300    6.8680 N   0  0  0  0  0  0  0  0  0  0  0  0
   -6.2260    6.5240    7.8670 N   0  0  0  0  0  0  0  0  0  0  0  0
   -7.1930    6.7500    8.7820 C   0  0  0  0  0  0  0  0  0  0  0  0
   -8.4240    6.1170    8.7580 C   0  0  0  0  0  0  0  0  0  0  0  0
   -9.3950    6.3570    9.7450 N   0  0  0  0  0  0  0  0  0  0  0  0
  -10.5620    5.6840    9.7600 C   0  0  0  0  0  0  0  0  0  0  0  0
  -11.5770    5.6820   10.5960 N   0  0  0  0  0  0  0  0  0  0  0  0
  -12.4690    4.7490   10.1080 N   0  0  0  0  0  0  0  0  0  0  0  0
  -12.0160    4.1880    8.9920 N   0  0  0  0  0  0  0  0  0  0  0  0
  -10.8400    4.7900    8.7610 N   0  0  0  0  0  0  0  0  0  0  0  0
   -9.9950    4.4790    7.6090 C   0  0  0  0  0  0  0  0  0  0  0  0
   -8.6630    5.2070    7.7200 C   0  0  0  0  0  0  0  0  0  0  0  0
  -10.7490    4.8610    6.3730 C   0  0  0  0  0  0  0  0  0  0  0  0
  -11.0350    6.2020    6.1170 C   0  0  0  0  0  0  0  0  0  0  0  0
  -11.7370    6.5580    4.9650 C   0  0  0  0  0  0  0  0  0  0  0  0
  -12.1550    5.5730    4.0710 C   0  0  0  0  0  0  0  0  0  0  0  0
  -11.8700    4.2310    4.3270 C   0  0  0  0  0  0  0  0  0  0  0  0
  -11.1660    3.8760    5.4790 C   0  0  0  0  0  0  0  0  0  0  0  0
  -12.0160    7.8660    4.7150 O   0  0  0  0  0  0  0  0  0  0  0  0
   -6.8990    7.6510    9.7710 O   0  0  0  0  0  0  0  0  0  0  0  0
   -6.7601    3.2678    5.1892 N   0  0  0  0  0  0  0  0  0  0  0  0
   -7.1895    2.5082    4.1843 N   0  0  0  0  0  0  0  0  0  0  0  0
   -8.5011    2.7523    4.0214 C   0  0  0  0  0  0  0  0  0  1  0  0
   -9.3678    2.2661    3.0579 C   0  0  0  0  0  0  0  0  0  0  0  0
   -8.9512    1.3037    2.1156 C   0  0  0  0  0  0  0  0  0  0  0  0
   -9.8822    0.8702    1.1837 C   0  0  0  0  0  0  0  0  0  0  0  0
  -11.1506    1.3456    1.1580 C   0  0  0  0  0  0  0  0  0  0  0  0
  -11.6086    2.2988    2.0617 C   0  0  0  0  0  0  0  0  0  0  0  0
  -10.7132    2.7906    3.0514 C   0  0  0  0  0  0  0  0  0  0  0  0
  -11.1000    3.7583    3.9810 N   0  0  0  0  0  0  0  0  0  0  0  0
  -12.4515    4.3599    3.9745 C   0  0  0  0  0  0  0  0  0  0  0  0
  -12.5762    5.4115    2.8911 C   0  0  0  0  0  0  0  0  0  0  0  0
  -11.6725    6.4898    2.8784 C   0  0  0  0  0  0  0  0  0  0  0  0
  -11.7544    7.4745    1.8934 C   0  0  0  0  0  0  0  0  0  0  0  0
  -12.7439    7.4016    0.9122 C   0  0  0  0  0  0  0  0  0  0  0  0
  -13.6609    6.3503    0.9183 C   0  0  0  0  0  0  0  0  0  0  0  0
  -13.5975    5.3517    1.9124 C   0  0  0  0  0  0  0  0  0  0  0  0
  -14.5352    4.3071    1.9577 O   0  0  0  0  0  0  0  0  0  0  0  0
  -15.4904    4.0328    0.9351 C   0  0  0  0  0  0  0  0  0  0  0  0
  -10.2132    4.2306    4.9237 C   0  0  0  0  0  0  0  0  0  0  0  0
   -8.9273    3.7177    4.9661 C   0  0  0  0  0  0  0  0  0  2  0  0
  -11.8477    0.7392    0.1308 O   0  0  0  0  0  0  0  0  0  0  0  0
  -10.9606   -0.1765   -0.5269 C   0  0  0  0  0  0  0  0  0  0  0  0
   -9.7159   -0.0594    0.1758 O   0  0  0  0  0  0  0  0  0  0  0  0
  1  3  4  0
  1 14  4  0
  1  2  1  0
  3  4  4  0
  4  5  4  0
  5  6  4  0
  5 22  1  0
  6  7  1  0
  6 14  4  0
  7  8  1  0
  8  9  4  0
  8 12  4  0
  9 10  4  0
 10 11  4  0
 11 12  4  0
 12 13  1  0
 13 14  1  0
 13 15  1  6
 15 16  4  0
 15 20  4  0
 16 17  4  0
 17 18  4  0
 17 21  1  0
 18 19  4  0
 19 20  4  0
 23 24  4  0
 24 25  4  0
 25 26  4  0
 26 27  4  0
 27 28  4  0
 28 29  4  0
 29 30  4  0
 30 31  4  0
 31 32  4  0
 32 33  1  0
 33 34  1  0
 34 35  4  0
 35 36  4  0
 36 37  4  0
 37 38  4  0
 38 39  4  0
 39 40  1  0
 40 41  1  0
 32 42  4  0
 42 43  4  0
 29 44  1  0
 44 45  1  0
 45 46  1  0
 43 25  1  0
 31 26  4  0
 39 34  4  0
 46 28  1  0
  2 23  4  0
  2 43  4  0
M  END
$$$$

     RDKit          3D

 38 44  0  0  0  0  0  0  0  0999 V2000
   -7.6410    4.9930    6.8080 C   0  0  0  0  0  0  0  0  0  1  0  0
   -7.7310    4.0530    5.7140 C   0  0  0  0  0  0  0  0  0  2  0  0
   -6.4520    5.6300    6.8680 N   0  0  0  0  0  0  0  0  0  0  0  0
   -6.2260    6.5240    7.8670 N   0  0  0  0  0  0  0  0  0  0  0  0
   -7.1930    6.7500    8.7820 C   0  0  0  0  0  0  0  0  0  0  0  0
   -8.4240    6.1170    8.7580 C   0  0  0  0  0  0  0  0  0  0  0  0
   -9.3950    6.3570    9.7450 N   0  0  0  0  0  0  0  0  0  0  0  0
  -10.5620    5.6840    9.7600 C   0  0  0  0  0  0  0  0  0  0  0  0
  -11.5770    5.6820   10.5960 N   0  0  0  0  0  0  0  0  0  0  0  0
  -12.4690    4.7490   10.1080 N   0  0  0  0  0  0  0  0  0  0  0  0
  -12.0160    4.1880    8.9920 N   0  0  0  0  0  0  0  0  0  0  0  0
  -10.8400    4.7900    8.7610 N   0  0  0  0  0  0  0  0  0  0  0  0
   -9.9950    4.4790    7.6090 C   0  0  0  0  0  0  0  0  0  0  0  0
   -8.6630    5.2070    7.7200 C   0  0  0  0  0  0  0  0  0  0  0  0
  -10.7490    4.8610    6.3730 C   0  0  0  0  0  0  0  0  0  0  0  0
  -11.0350    6.2020    6.1170 C   0  0  0  0  0  0  0  0  0  0  0  0
  -11.7370    6.5580    4.9650 C   0  0  0  0  0  0  0  0  0  0  0  0
  -12.1550    5.5730    4.0710 C   0  0  0  0  0  0  0  0  0  0  0  0
  -11.8700    4.2310    4.3270 C   0  0  0  0  0  0  0  0  0  0  0  0
  -11.1660    3.8760    5.4790 C   0  0  0  0  0  0  0  0  0  0  0  0
  -12.0160    7.8660    4.7150 O   0  0  0  0  0  0  0  0  0  0  0  0
   -6.8990    7.6510    9.7710 O   0  0  0  0  0  0  0  0  0  0  0  0
   -6.9075    2.9011    5.5249 C   0  0  0  0  0  0  0  0  0  1  0  0
   -5.8322    2.5936    6.4942 C   0  0  0  0  0  0  0  0  0  2  0  0
   -4.5347    2.3257    6.0285 C   0  0  0  0  0  0  0  0  0  0  0  0
   -3.5102    2.0217    6.9303 C   0  0  0  0  0  0  0  0  0  0  0  0
   -3.7763    1.9681    8.3011 C   0  0  0  0  0  0  0  0  0  0  0  0
   -5.0695    2.2098    8.7717 C   0  0  0  0  0  0  0  0  0  0  0  0
   -6.0969    2.5131    7.8734 C   0  0  0  0  0  0  0  0  0  0  0  0
   -7.0332    2.0959    4.4731 O   0  0  0  0  0  0  0  0  0  0  0  0
   -7.9763    2.2429    3.5511 C   0  0  0  0  0  0  0  0  0  0  0  0
   -8.0406    1.3453    2.4794 C   0  0  0  0  0  0  0  0  0  0  0  0
   -9.0319    1.4855    1.5046 C   0  0  0  0  0  0  0  0  0  0  0  0
   -9.9631    2.5233    1.5954 C   0  0  0  0  0  0  0  0  0  0  0  0
   -9.9071    3.4272    2.6609 C   0  0  0  0  0  0  0  0  0  0  0  0
   -8.9126    3.2939    3.6484 C   0  0  0  0  0  0  0  0  0  0  0  0
   -8.8069    4.1836    4.7290 C   0  0  0  0  0  0  0  0  0  0  0  0
   -9.6064    5.1556    4.8319 O   0  0  0  0  0  0  0  0  0  0  0  0
  1  3  4  0
  1 14  4  0
  1  2  1  0
  3  4  4  0
  4  5  4  0
  5  6  4  0
  5 22  1  0
  6  7  1  0
  6 14  4  0
  7  8  1  0
  8  9  4  0
  8 12  4  0
  9 10  4  0
 10 11  4  0
 11 12  4  0
 12 13  1  0
 13 14  1  0
 13 15  1  6
 15 16  4  0
 15 20  4  0
 16 17  4  0
 17 18  4  0
 17 21  1  0
 18 19  4  0
 19 20  4  0
 23 24  1  0
 24 25  4  0
 25 26  4  0
 26 27  4  0
 27 28  4  0
 28 29  4  0
 23 30  4  0
 30 31  4  0
 31 32  4  0
 32 33  4  0
 33 34  4  0
 34 35  4  0
 35 36  4  0
 36 37  4  0
 37 38  2  0
 29 24  4  0
 36 31  4  0
  2 23  4  0
  2 37  4  0
M  END
$$$$

     RDKit          3D

 38 44  0  0  0  0  0  0  0  0999 V2000
   -7.6410    4.9930    6.8080 C   0  0  0  0  0  0  0  0  0  1  0  0
   -7.7310    4.0530    5.7140 C   0  0  0  0  0  0  0  0  0  2  0  0
   -6.4520    5.6300    6.8680 N   0  0  0  0  0  0  0  0  0  0  0  0
   -6.2260    6.5240    7.8670 N   0  0  0  0  0  0  0  0  0  0  0  0
   -7.1930    6.7500    8.7820 C   0  0  0  0  0  0  0  0  0  0  0  0
   -8.4240    6.1170    8.7580 C   0  0  0  0  0  0  0  0  0  0  0  0
   -9.3950    6.3570    9.7450 N   0  0  0  0  0  0  0  0  0  0  0  0
  -10.5620    5.6840    9.7600 C   0  0  0  0  0  0  0  0  0  0  0  0
  -11.5770    5.6820   10.5960 N   0  0  0  0  0  0  0  0  0  0  0  0
  -12.4690    4.7490   10.1080 N   0  0  0  0  0  0  0  0  0  0  0  0
  -12.0160    4.1880    8.9920 N   0  0  0  0  0  0  0  0  0  0  0  0
  -10.8400    4.7900    8.7610 N   0  0  0  0  0  0  0  0  0  0  0  0
   -9.9950    4.4790    7.6090 C   0  0  0  0  0  0  0  0  0  0  0  0
   -8.6630    5.2070    7.7200 C   0  0  0  0  0  0  0  0  0  0  0  0
  -10.7490    4.8610    6.3730 C   0  0  0  0  0  0  0  0  0  0  0  0
  -11.0350    6.2020    6.1170 C   0  0  0  0  0  0  0  0  0  0  0  0
  -11.7370    6.5580    4.9650 C   0  0  0  0  0  0  0  0  0  0  0  0
  -12.1550    5.5730    4.0710 C   0  0  0  0  0  0  0  0  0  0  0  0
  -11.8700    4.2310    4.3270 C   0  0  0  0  0  0  0  0  0  0  0  0
  -11.1660    3.8760    5.4790 C   0  0  0  0  0  0  0  0  0  0  0  0
  -12.0160    7.8660    4.7150 O   0  0  0  0  0  0  0  0  0  0  0  0
   -6.8990    7.6510    9.7710 O   0  0  0  0  0  0  0  0  0  0  0  0
   -6.9089    2.8999    5.5263 C   0  0  0  0  0  0  0  0  0  1  0  0
   -5.8355    2.5907    6.4972 C   0  0  0  0  0  0  0  0  0  2  0  0
   -6.1025    2.5106    7.8760 C   0  0  0  0  0  0  0  0  0  0  0  0
   -5.0771    2.2052    8.7758 C   0  0  0  0  0  0  0  0  0  0  0  0
   -3.7837    1.9608    8.3071 C   0  0  0  0  0  0  0  0  0  0  0  0
   -3.5154    2.0139    6.9368 C   0  0  0  0  0  0  0  0  0  0  0  0
   -4.5380    2.3202    6.0335 C   0  0  0  0  0  0  0  0  0  0  0  0
   -7.0344    2.0947    4.4744 O   0  0  0  0  0  0  0  0  0  0  0  0
   -7.9760    2.2430    3.5511 C   0  0  0  0  0  0  0  0  0  0  0  0
   -8.0402    1.3454    2.4794 C   0  0  0  0  0  0  0  0  0  0  0  0
   -9.0299    1.4869    1.5032 C   0  0  0  0  0  0  0  0  0  0  0  0
   -9.9598    2.5261    1.5927 C   0  0  0  0  0  0  0  0  0  0  0  0
   -9.9039    3.4300    2.6581 C   0  0  0  0  0  0  0  0  0  0  0  0
   -8.9110    3.2954    3.6471 C   0  0  0  0  0  0  0  0  0  0  0  0
   -8.8054    4.1848    4.7277 C   0  0  0  0  0  0  0  0  0  0  0  0
   -9.6037    5.1580    4.8295 O   0  0  0  0  0  0  0  0  0  0  0  0
  1  3  4  0
  1 14  4  0
  1  2  1  0
  3  4  4  0
  4  5  4  0
  5  6  4  0
  5 22  1  0
  6  7  1  0
  6 14  4  0
  7  8  1  0
  8  9  4  0
  8 12  4  0
  9 10  4  0
 10 11  4  0
 11 12  4  0
 12 13  1  0
 13 14  1  0
 13 15  1  6
 15 16  4  0
 15 20  4  0
 16 17  4  0
 17 18  4  0
 17 21  1  0
 18 19  4  0
 19 20  4  0
 23 24  1  0
 24 25  4  0
 25 26  4  0
 26 27  4  0
 27 28  4  0
 28 29  4  0
 23 30  4  0
 30 31  4  0
 31 32  4  0
 32 33  4  0
 33 34  4  0
 34 35  4  0
 35 36  4  0
 36 37  4  0
 37 38  2  0
 29 24  4  0
 36 31  4  0
  2 23  4  0
  2 37  4  0
M  END
$$$$

     RDKit          3D

 34 39  0  0  0  0  0  0  0  0999 V2000
   -7.6410    4.9930    6.8080 C   0  0  0  0  0  0  0  0  0  1  0  0
   -7.7310    4.0530    5.7140 C   0  0  0  0  0  0  0  0  0  2  0  0
   -6.4520    5.6300    6.8680 N   0  0  0  0  0  0  0  0  0  0  0  0
   -6.2260    6.5240    7.8670 N   0  0  0  0  0  0  0  0  0  0  0  0
   -7.1930    6.7500    8.7820 C   0  0  0  0  0  0  0  0  0  0  0  0
   -8.4240    6.1170    8.7580 C   0  0  0  0  0  0  0  0  0  0  0  0
   -9.3950    6.3570    9.7450 N   0  0  0  0  0  0  0  0  0  0  0  0
  -10.5620    5.6840    9.7600 C   0  0  0  0  0  0  0  0  0  0  0  0
  -11.5770    5.6820   10.5960 N   0  0  0  0  0  0  0  0  0  0  0  0
  -12.4690    4.7490   10.1080 N   0  0  0  0  0  0  0  0  0  0  0  0
  -12.0160    4.1880    8.9920 N   0  0  0  0  0  0  0  0  0  0  0  0
  -10.8400    4.7900    8.7610 N   0  0  0  0  0  0  0  0  0  0  0  0
   -9.9950    4.4790    7.6090 C   0  0  0  0  0  0  0  0  0  0  0  0
   -8.6630    5.2070    7.7200 C   0  0  0  0  0  0  0  0  0  0  0  0
  -10.7490    4.8610    6.3730 C   0  0  0  0  0  0  0  0  0  0  0  0
  -11.0350    6.2020    6.1170 C   0  0  0  0  0  0  0  0  0  0  0  0
  -11.7370    6.5580    4.9650 C   0  0  0  0  0  0  0  0  0  0  0  0
  -12.1550    5.5730    4.0710 C   0  0  0  0  0  0  0  0  0  0  0  0
  -11.8700    4.2310    4.3270 C   0  0  0  0  0  0  0  0  0  0  0  0
  -11.1660    3.8760    5.4790 C   0  0  0  0  0  0  0  0  0  0  0  0
  -12.0160    7.8660    4.7150 O   0  0  0  0  0  0  0  0  0  0  0  0
   -6.8990    7.6510    9.7710 O   0  0  0  0  0  0  0  0  0  0  0  0
   -7.0125    2.9017    5.5874 N   0  0  0  0  0  0  0  0  0  0  0  0
   -7.4145    2.3415    4.4286 C   0  0  0  0  0  0  0  0  0  0  0  0
   -6.8940    1.1695    3.8663 C   0  0  0  0  0  0  0  0  0  0  0  0
   -5.7959    0.4000    4.5396 C   0  0  0  0  0  0  0  0  0  0  0  0
   -7.3955    0.7758    2.6111 C   0  0  0  0  0  0  0  0  0  0  0  0
   -8.3903    1.5357    1.9719 C   0  0  0  0  0  0  0  0  0  0  0  0
   -8.8798    2.6948    2.5874 C   0  0  0  0  0  0  0  0  0  0  0  0
   -8.3755    3.0470    3.8017 N   0  0  0  0  0  0  0  0  0  0  0  0
   -8.6378    4.1080    4.5922 C   0  0  0  0  0  0  0  0  0  0  0  0
   -9.5133    5.2816    4.2109 C   0  0  0  0  0  0  0  0  0  0  0  0
   -8.6559    6.4060    3.6273 C   0  0  0  0  0  0  0  0  0  0  0  0
  -10.2178    5.7430    5.3320 O   0  0  0  0  0  0  0  0  0  0  0  0
  1  3  4  0
  1 14  4  0
  1  2  1  0
  3  4  4  0
  4  5  4  0
  5  6  4  0
  5 22  1  0
  6  7  1  0
  6 14  4  0
  7  8  1  0
  8  9  4  0
  8 12  4  0
  9 10  4  0
 10 11  4  0
 11 12  4  0
 12 13  1  0
 13 14  1  0
 13 15  1  6
 15 16  4  0
 15 20  4  0
 16 17  4  0
 17 18  4  0
 17 21  1  0
 18 19  4  0
 19 20  4  0
 23 24  4  0
 24 25  4  0
 25 26  1  0
 25 27  4  0
 27 28  4  0
 28 29  4  0
 29 30  4  0
 30 31  4  0
 31 32  1  0
 32 33  1  0
 32 34  1  0
 30 24  4  0
  2 23  4  0
  2 31  4  0
M  END
$$$$

     RDKit          3D

 41 46  0  0  0  0  0  0  0  0999 V2000
   -7.6410    4.9930    6.8080 C   0  0  0  0  0  0  0  0  0  1  0  0
   -7.7310    4.0530    5.7140 C   0  0  0  0  0  0  0  0  0  2  0  0
   -6.4520    5.6300    6.8680 N   0  0  0  0  0  0  0  0  0  0  0  0
   -6.2260    6.5240    7.8670 N   0  0  0  0  0  0  0  0  0  0  0  0
   -7.1930    6.7500    8.7820 C   0  0  0  0  0  0  0  0  0  0  0  0
   -8.4240    6.1170    8.7580 C   0  0  0  0  0  0  0  0  0  0  0  0
   -9.3950    6.3570    9.7450 N   0  0  0  0  0  0  0  0  0  0  0  0
  -10.5620    5.6840    9.7600 C   0  0  0  0  0  0  0  0  0  0  0  0
  -11.5770    5.6820   10.5960 N   0  0  0  0  0  0  0  0  0  0  0  0
  -12.4690    4.7490   10.1080 N   0  0  0  0  0  0  0  0  0  0  0  0
  -12.0160    4.1880    8.9920 N   0  0  0  0  0  0  0  0  0  0  0  0
  -10.8400    4.7900    8.7610 N   0  0  0  0  0  0  0  0  0  0  0  0
   -9.9950    4.4790    7.6090 C   0  0  0  0  0  0  0  0  0  0  0  0
   -8.6630    5.2070    7.7200 C   0  0  0  0  0  0  0  0  0  0  0  0
  -10.7490    4.8610    6.3730 C   0  0  0  0  0  0  0  0  0  0  0  0
  -11.0350    6.2020    6.1170 C   0  0  0  0  0  0  0  0  0  0  0  0
  -11.7370    6.5580    4.9650 C   0  0  0  0  0  0  0  0  0  0  0  0
  -12.1550    5.5730    4.0710 C   0  0  0  0  0  0  0  0  0  0  0  0
  -11.8700    4.2310    4.3270 C   0  0  0  0  0  0  0  0  0  0  0  0
  -11.1660    3.8760    5.4790 C   0  0  0  0  0  0  0  0  0  0  0  0
  -12.0160    7.8660    4.7150 O   0  0  0  0  0  0  0  0  0  0  0  0
   -6.8990    7.6510    9.7710 O   0  0  0  0  0  0  0  0  0  0  0  0
   -7.1449    2.8236    5.6816 N   0  0  0  0  0  0  0  0  0  0  0  0
   -7.5456    2.1731    4.6012 N   0  0  0  0  0  0  0  0  0  0  0  0
   -8.4199    2.9728    3.9645 C   0  0  0  0  0  0  0  0  0  0  0  0
   -9.2818    2.4798    2.4689 S   0  0  0  0  0  0  0  0  0  0  0  0
   -8.0131    3.1665    1.3531 C   0  0  0  0  0  0  0  0  0  0  0  0
   -8.5339    3.1277   -0.0582 C   0  0  0  0  0  0  0  0  0  0  0  0
   -9.5728    3.7864   -0.3420 O   0  0  0  0  0  0  0  0  0  0  0  0
   -7.8913    2.3373   -1.0785 N   0  0  0  0  0  0  0  0  0  0  0  0
   -6.4269    2.1872   -1.0978 C   0  0  0  0  0  0  0  0  0  0  0  0
   -5.9241    1.9041   -2.5293 C   0  0  0  0  0  0  0  0  0  0  0  0
   -4.3960    1.7660   -2.5579 C   0  0  0  0  0  0  0  0  0  0  0  0
   -6.6100    0.6540   -3.1362 C   0  0  0  0  0  0  0  0  0  0  0  0
   -8.0801    0.4605   -2.6709 C   0  0  0  0  0  0  0  0  0  0  0  0
   -8.9372   -0.1707   -3.7799 C   0  0  0  0  0  0  0  0  0  0  0  0
   -8.7040    1.7763   -2.1723 C   0  0  0  0  0  0  0  0  0  0  0  0
   -8.5965    4.1456    4.6122 N   0  0  0  0  0  0  0  0  0  0  0  0
   -9.4111    5.2914    4.1619 C   0  0  0  0  0  0  0  0  0  0  0  0
  -10.6354    5.4994    5.0564 C   0  0  0  0  0  0  0  0  0  0  0  0
   -8.5692    6.5677    4.0390 C   0  0  0  0  0  0  0  0  0  0  0  0
  1  3  4  0
  1 14  4  0
  1  2  1  0
  3  4  4  0
  4  5  4  0
  5  6  4  0
  5 22  1  0
  6  7  1  0
  6 14  4  0
  7  8  1  0
  8  9  4  0
  8 12  4  0
  9 10  4  0
 10 11  4  0
 11 12  4  0
 12 13  1  0
 13 14  1  0
 13 15  1  6
 15 16  4  0
 15 20  4  0
 16 17  4  0
 17 18  4  0
 17 21  1  0
 18 19  4  0
 19 20  4  0
 23 24  4  0
 24 25  4  0
 25 26  1  0
 26 27  1  0
 27 28  1  0
 28 29  2  0
 28 30  1  0
 30 31  1  0
 31 32  1  0
 32 33  1  0
 32 34  1  0
 34 35  1  0
 35 36  1  0
 35 37  1  0
 25 38  4  0
 38 39  1  0
 39 40  1  0
 39 41  1  0
 37 30  1  0
  2 23  4  0
  2 38  4  0
M  END
$$$$

     RDKit          3D

 32 37  0  0  0  0  0  0  0  0999 V2000
   -7.6410    4.9930    6.8080 C   0  0  0  0  0  0  0  0  0  1  0  0
   -7.7310    4.0530    5.7140 C   0  0  0  0  0  0  0  0  0  2  0  0
   -6.4520    5.6300    6.8680 N   0  0  0  0  0  0  0  0  0  0  0  0
   -6.2260    6.5240    7.8670 N   0  0  0  0  0  0  0  0  0  0  0  0
   -7.1930    6.7500    8.7820 C   0  0  0  0  0  0  0  0  0  0  0  0
   -8.4240    6.1170    8.7580 C   0  0  0  0  0  0  0  0  0  0  0  0
   -9.3950    6.3570    9.7450 N   0  0  0  0  0  0  0  0  0  0  0  0
  -10.5620    5.6840    9.7600 C   0  0  0  0  0  0  0  0  0  0  0  0
  -11.5770    5.6820   10.5960 N   0  0  0  0  0  0  0  0  0  0  0  0
  -12.4690    4.7490   10.1080 N   0  0  0  0  0  0  0  0  0  0  0  0
  -12.0160    4.1880    8.9920 N   0  0  0  0  0  0  0  0  0  0  0  0
  -10.8400    4.7900    8.7610 N   0  0  0  0  0  0  0  0  0  0  0  0
   -9.9950    4.4790    7.6090 C   0  0  0  0  0  0  0  0  0  0  0  0
   -8.6630    5.2070    7.7200 C   0  0  0  0  0  0  0  0  0  0  0  0
  -10.7490    4.8610    6.3730 C   0  0  0  0  0  0  0  0  0  0  0  0
  -11.0350    6.2020    6.1170 C   0  0  0  0  0  0  0  0  0  0  0  0
  -11.7370    6.5580    4.9650 C   0  0  0  0  0  0  0  0  0  0  0  0
  -12.1550    5.5730    4.0710 C   0  0  0  0  0  0  0  0  0  0  0  0
  -11.8700    4.2310    4.3270 C   0  0  0  0  0  0  0  0  0  0  0  0
  -11.1660    3.8760    5.4790 C   0  0  0  0  0  0  0  0  0  0  0  0
  -12.0160    7.8660    4.7150 O   0  0  0  0  0  0  0  0  0  0  0  0
   -6.8990    7.6510    9.7710 O   0  0  0  0  0  0  0  0  0  0  0  0
   -6.9085    2.9070    5.6393 C   0  0  0  0  0  0  0  0  0  0  0  0
   -7.0713    1.9052    4.6823 C   0  0  0  0  0  0  0  0  0  0  0  0
   -8.1153    1.9813    3.7629 C   0  0  0  0  0  0  0  0  0  0  0  0
   -8.9908    3.0682    3.7852 C   0  0  0  0  0  0  0  0  0  0  0  0
   -8.8345    4.1000    4.7296 C   0  0  0  0  0  0  0  0  0  1  0  0
   -9.7434    5.2707    4.6524 C   0  0  0  0  0  0  0  0  0  2  0  0
   -9.4527    6.5051    5.1043 N   0  0  0  0  0  0  0  0  0  0  0  0
  -10.5098    7.2378    4.7965 N   0  0  0  0  0  0  0  0  0  0  0  0
  -11.4064    6.4890    4.1753 N   0  0  0  0  0  0  0  0  0  0  0  0
  -10.9541    5.2512    4.0633 N   0  0  0  0  0  0  0  0  0  0  0  0
  1  3  4  0
  1 14  4  0
  1  2  1  0
  3  4  4  0
  4  5  4  0
  5  6  4  0
  5 22  1  0
  6  7  1  0
  6 14  4  0
  7  8  1  0
  8  9  4  0
  8 12  4  0
  9 10  4  0
 10 11  4  0
 11 12  4  0
 12 13  1  0
 13 14  1  0
 13 15  1  6
 15 16  4  0
 15 20  4  0
 16 17  4  0
 17 18  4  0
 17 21  1  0
 18 19  4  0
 19 20  4  0
 23 24  4  0
 24 25  4  0
 25 26  4  0
 26 27  4  0
 27 28  1  0
 28 29  4  0
 29 30  4  0
 30 31  4  0
 31 32  4  0
 32 28  4  0
  2 23  4  0
  2 27  4  0
M  CHG  1  31  -1
M  END
$$$$

     RDKit          3D

 29 33  0  0  0  0  0  0  0  0999 V2000
   -7.6410    4.9930    6.8080 C   0  0  0  0  0  0  0  0  0  1  0  0
   -7.7310    4.0530    5.7140 C   0  0  0  0  0  0  0  0  0  2  0  0
   -6.4520    5.6300    6.8680 N   0  0  0  0  0  0  0  0  0  0  0  0
   -6.2260    6.5240    7.8670 N   0  0  0  0  0  0  0  0  0  0  0  0
   -7.1930    6.7500    8.7820 C   0  0  0  0  0  0  0  0  0  0  0  0
   -8.4240    6.1170    8.7580 C   0  0  0  0  0  0  0  0  0  0  0  0
   -9.3950    6.3570    9.7450 N   0  0  0  0  0  0  0  0  0  0  0  0
  -10.5620    5.6840    9.7600 C   0  0  0  0  0  0  0  0  0  0  0  0
  -11.5770    5.6820   10.5960 N   0  0  0  0  0  0  0  0  0  0  0  0
  -12.4690    4.7490   10.1080 N   0  0  0  0  0  0  0  0  0  0  0  0
  -12.0160    4.1880    8.9920 N   0  0  0  0  0  0  0  0  0  0  0  0
  -10.8400    4.7900    8.7610 N   0  0  0  0  0  0  0  0  0  0  0  0
   -9.9950    4.4790    7.6090 C   0  0  0  0  0  0  0  0  0  0  0  0
   -8.6630    5.2070    7.7200 C   0  0  0  0  0  0  0  0  0  0  0  0
  -10.7490    4.8610    6.3730 C   0  0  0  0  0  0  0  0  0  0  0  0
  -11.0350    6.2020    6.1170 C   0  0  0  0  0  0  0  0  0  0  0  0
  -11.7370    6.5580    4.9650 C   0  0  0  0  0  0  0  0  0  0  0  0
  -12.1550    5.5730    4.0710 C   0  0  0  0  0  0  0  0  0  0  0  0
  -11.8700    4.2310    4.3270 C   0  0  0  0  0  0  0  0  0  0  0  0
  -11.1660    3.8760    5.4790 C   0  0  0  0  0  0  0  0  0  0  0  0
  -12.0160    7.8660    4.7150 O   0  0  0  0  0  0  0  0  0  0  0  0
   -6.8990    7.6510    9.7710 O   0  0  0  0  0  0  0  0  0  0  0  0
   -6.8763    2.9467    5.5511 C   0  0  0  0  0  0  0  0  0  0  0  0
   -5.8176    2.8332    6.3932 F   0  0  0  0  0  0  0  0  0  0  0  0
   -7.0666    1.9756    4.5644 C   0  0  0  0  0  0  0  0  0  0  0  0
   -8.1589    2.0589    3.7004 C   0  0  0  0  0  0  0  0  0  0  0  0
   -9.0571    3.1224    3.8091 C   0  0  0  0  0  0  0  0  0  0  0  0
   -8.8790    4.1019    4.7937 C   0  0  0  0  0  0  0  0  0  0  0  0
   -9.9924    5.4655    4.8205 Cl  0  0  0  0  0  0  0  0  0  0  0  0
  1  3  4  0
  1 14  4  0
  1  2  1  0
  3  4  4  0
  4  5  4  0
  5  6  4  0
  5 22  1  0
  6  7  1  0
  6 14  4  0
  7  8  1  0
  8  9  4  0
  8 12  4  0
  9 10  4  0
 10 11  4  0
 11 12  4  0
 12 13  1  0
 13 14  1  0
 13 15  1  6
 15 16  4  0
 15 20  4  0
 16 17  4  0
 17 18  4  0
 17 21  1  0
 18 19  4  0
 19 20  4  0
 23 24  1  0
 23 25  4  0
 25 26  4  0
 26 27  4  0
 27 28  4  0
 28 29  1  0
  2 23  4  0
  2 28  4  0
M  END
$$$$

     RDKit          3D

 29 33  0  0  0  0  0  0  0  0999 V2000
   -7.6410    4.9930    6.8080 C   0  0  0  0  0  0  0  0  0  1  0  0
   -7.7310    4.0530    5.7140 C   0  0  0  0  0  0  0  0  0  2  0  0
   -6.4520    5.6300    6.8680 N   0  0  0  0  0  0  0  0  0  0  0  0
   -6.2260    6.5240    7.8670 N   0  0  0  0  0  0  0  0  0  0  0  0
   -7.1930    6.7500    8.7820 C   0  0  0  0  0  0  0  0  0  0  0  0
   -8.4240    6.1170    8.7580 C   0  0  0  0  0  0  0  0  0  0  0  0
   -9.3950    6.3570    9.7450 N   0  0  0  0  0  0  0  0  0  0  0  0
  -10.5620    5.6840    9.7600 C   0  0  0  0  0  0  0  0  0  0  0  0
  -11.5770    5.6820   10.5960 N   0  0  0  0  0  0  0  0  0  0  0  0
  -12.4690    4.7490   10.1080 N   0  0  0  0  0  0  0  0  0  0  0  0
  -12.0160    4.1880    8.9920 N   0  0  0  0  0  0  0  0  0  0  0  0
  -10.8400    4.7900    8.7610 N   0  0  0  0  0  0  0  0  0  0  0  0
   -9.9950    4.4790    7.6090 C   0  0  0  0  0  0  0  0  0  0  0  0
   -8.6630    5.2070    7.7200 C   0  0  0  0  0  0  0  0  0  0  0  0
  -10.7490    4.8610    6.3730 C   0  0  0  0  0  0  0  0  0  0  0  0
  -11.0350    6.2020    6.1170 C   0  0  0  0  0  0  0  0  0  0  0  0
  -11.7370    6.5580    4.9650 C   0  0  0  0  0  0  0  0  0  0  0  0
  -12.1550    5.5730    4.0710 C   0  0  0  0  0  0  0  0  0  0  0  0
  -11.8700    4.2310    4.3270 C   0  0  0  0  0  0  0  0  0  0  0  0
  -11.1660    3.8760    5.4790 C   0  0  0  0  0  0  0  0  0  0  0  0
  -12.0160    7.8660    4.7150 O   0  0  0  0  0  0  0  0  0  0  0  0
   -6.8990    7.6510    9.7710 O   0  0  0  0  0  0  0  0  0  0  0  0
   -8.9018    4.1286    4.8268 C   0  0  0  0  0  0  0  0  0  0  0  0
   -9.7640    5.1695    4.9498 F   0  0  0  0  0  0  0  0  0  0  0  0
   -9.1139    3.1901    3.8133 C   0  0  0  0  0  0  0  0  0  0  0  0
   -8.2263    2.1268    3.6447 C   0  0  0  0  0  0  0  0  0  0  0  0
   -7.1206    1.9986    4.4873 C   0  0  0  0  0  0  0  0  0  0  0  0
   -6.8967    2.9304    5.5079 C   0  0  0  0  0  0  0  0  0  0  0  0
   -5.5113    2.6905    6.5683 Cl  0  0  0  0  0  0  0  0  0  0  0  0
  1  3  4  0
  1 14  4  0
  1  2  1  0
  3  4  4  0
  4  5  4  0
  5  6  4  0
  5 22  1  0
  6  7  1  0
  6 14  4  0
  7  8  1  0
  8  9  4  0
  8 12  4  0
  9 10  4  0
 10 11  4  0
 11 12  4  0
 12 13  1  0
 13 14  1  0
 13 15  1  6
 15 16  4  0
 15 20  4  0
 16 17  4  0
 17 18  4  0
 17 21  1  0
 18 19  4  0
 19 20  4  0
 23 24  1  0
 23 25  4  0
 25 26  4  0
 26 27  4  0
 27 28  4  0
 28 29  1  0
  2 23  4  0
  2 28  4  0
M  END
$$$$

     RDKit          3D

 32 37  0  0  0  0  0  0  0  0999 V2000
   -7.6410    4.9930    6.8080 C   0  0  0  0  0  0  0  0  0  1  0  0
   -7.7310    4.0530    5.7140 C   0  0  0  0  0  0  0  0  0  2  0  0
   -6.4520    5.6300    6.8680 N   0  0  0  0  0  0  0  0  0  0  0  0
   -6.2260    6.5240    7.8670 N   0  0  0  0  0  0  0  0  0  0  0  0
   -7.1930    6.7500    8.7820 C   0  0  0  0  0  0  0  0  0  0  0  0
   -8.4240    6.1170    8.7580 C   0  0  0  0  0  0  0  0  0  0  0  0
   -9.3950    6.3570    9.7450 N   0  0  0  0  0  0  0  0  0  0  0  0
  -10.5620    5.6840    9.7600 C   0  0  0  0  0  0  0  0  0  0  0  0
  -11.5770    5.6820   10.5960 N   0  0  0  0  0  0  0  0  0  0  0  0
  -12.4690    4.7490   10.1080 N   0  0  0  0  0  0  0  0  0  0  0  0
  -12.0160    4.1880    8.9920 N   0  0  0  0  0  0  0  0  0  0  0  0
  -10.8400    4.7900    8.7610 N   0  0  0  0  0  0  0  0  0  0  0  0
   -9.9950    4.4790    7.6090 C   0  0  0  0  0  0  0  0  0  0  0  0
   -8.6630    5.2070    7.7200 C   0  0  0  0  0  0  0  0  0  0  0  0
  -10.7490    4.8610    6.3730 C   0  0  0  0  0  0  0  0  0  0  0  0
  -11.0350    6.2020    6.1170 C   0  0  0  0  0  0  0  0  0  0  0  0
  -11.7370    6.5580    4.9650 C   0  0  0  0  0  0  0  0  0  0  0  0
  -12.1550    5.5730    4.0710 C   0  0  0  0  0  0  0  0  0  0  0  0
  -11.8700    4.2310    4.3270 C   0  0  0  0  0  0  0  0  0  0  0  0
  -11.1660    3.8760    5.4790 C   0  0  0  0  0  0  0  0  0  0  0  0
  -12.0160    7.8660    4.7150 O   0  0  0  0  0  0  0  0  0  0  0  0
   -6.8990    7.6510    9.7710 O   0  0  0  0  0  0  0  0  0  0  0  0
   -6.9795    2.9369    5.5284 N   0  0  0  0  0  0  0  0  0  0  0  0
   -7.4354    2.2590    4.4851 N   0  0  0  0  0  0  0  0  0  0  0  0
   -8.5127    2.9198    4.0203 C   0  0  0  0  0  0  0  0  0  0  0  0
   -8.7564    4.0271    4.7465 N   0  0  0  0  0  0  0  0  0  0  0  0
   -9.7811    5.0092    4.5057 C   0  0  0  0  0  0  0  0  0  0  0  0
   -9.5075    6.3826    4.6364 C   0  0  0  0  0  0  0  0  0  0  0  0
  -10.5112    7.3276    4.4043 C   0  0  0  0  0  0  0  0  0  0  0  0
  -11.7921    6.9123    4.0319 C   0  0  0  0  0  0  0  0  0  0  0  0
  -12.0699    5.5509    3.8857 C   0  0  0  0  0  0  0  0  0  0  0  0
  -11.0689    4.6024    4.1168 C   0  0  0  0  0  0  0  0  0  0  0  0
  1  3  4  0
  1 14  4  0
  1  2  1  0
  3  4  4  0
  4  5  4  0
  5  6  4  0
  5 22  1  0
  6  7  1  0
  6 14  4  0
  7  8  1  0
  8  9  4  0
  8 12  4  0
  9 10  4  0
 10 11  4  0
 11 12  4  0
 12 13  1  0
 13 14  1  0
 13 15  1  6
 15 16  4  0
 15 20  4  0
 16 17  4  0
 17 18  4  0
 17 21  1  0
 18 19  4  0
 19 20  4  0
 23 24  4  0
 24 25  4  0
 25 26  4  0
 26 27  1  0
 27 28  4  0
 28 29  4  0
 29 30  4  0
 30 31  4  0
 31 32  4  0
 32 27  4  0
  2 23  4  0
  2 26  4  0
M  END
$$$$

     RDKit          3D

 43 49  0  0  0  0  0  0  0  0999 V2000
   -7.6410    4.9930    6.8080 C   0  0  0  0  0  0  0  0  0  1  0  0
   -7.7310    4.0530    5.7140 C   0  0  0  0  0  0  0  0  0  2  0  0
   -6.4520    5.6300    6.8680 N   0  0  0  0  0  0  0  0  0  0  0  0
   -6.2260    6.5240    7.8670 N   0  0  0  0  0  0  0  0  0  0  0  0
   -7.1930    6.7500    8.7820 C   0  0  0  0  0  0  0  0  0  0  0  0
   -8.4240    6.1170    8.7580 C   0  0  0  0  0  0  0  0  0  0  0  0
   -9.3950    6.3570    9.7450 N   0  0  0  0  0  0  0  0  0  0  0  0
  -10.5620    5.6840    9.7600 C   0  0  0  0  0  0  0  0  0  0  0  0
  -11.5770    5.6820   10.5960 N   0  0  0  0  0  0  0  0  0  0  0  0
  -12.4690    4.7490   10.1080 N   0  0  0  0  0  0  0  0  0  0  0  0
  -12.0160    4.1880    8.9920 N   0  0  0  0  0  0  0  0  0  0  0  0
  -10.8400    4.7900    8.7610 N   0  0  0  0  0  0  0  0  0  0  0  0
   -9.9950    4.4790    7.6090 C   0  0  0  0  0  0  0  0  0  0  0  0
   -8.6630    5.2070    7.7200 C   0  0  0  0  0  0  0  0  0  0  0  0
  -10.7490    4.8610    6.3730 C   0  0  0  0  0  0  0  0  0  0  0  0
  -11.0350    6.2020    6.1170 C   0  0  0  0  0  0  0  0  0  0  0  0
  -11.7370    6.5580    4.9650 C   0  0  0  0  0  0  0  0  0  0  0  0
  -12.1550    5.5730    4.0710 C   0  0  0  0  0  0  0  0  0  0  0  0
  -11.8700    4.2310    4.3270 C   0  0  0  0  0  0  0  0  0  0  0  0
  -11.1660    3.8760    5.4790 C   0  0  0  0  0  0  0  0  0  0  0  0
  -12.0160    7.8660    4.7150 O   0  0  0  0  0  0  0  0  0  0  0  0
   -6.8990    7.6510    9.7710 O   0  0  0  0  0  0  0  0  0  0  0  0
   -6.7928    3.1716    5.3065 N   0  0  0  0  0  0  0  0  0  0  0  0
   -7.2816    2.4416    4.3161 N   0  0  0  0  0  0  0  0  0  0  0  0
   -6.5098    1.4243    3.5972 C   0  0  0  0  0  0  0  0  0  0  0  0
   -6.0233    1.9434    2.2989 N   0  0  0  0  0  0  0  0  0  0  0  0
   -5.0201    3.0165    2.5026 C   0  0  0  0  0  0  0  0  0  0  0  0
   -4.5286    3.5705    1.1616 C   0  0  0  0  0  0  0  0  0  0  0  0
   -4.0636    2.4673    0.3242 N   0  0  0  0  0  0  0  0  0  0  0  0
   -2.9010    2.6254   -0.5027 C   0  0  0  0  0  0  0  0  0  0  0  0
   -2.9211    3.5642   -1.5447 C   0  0  0  0  0  0  0  0  0  0  0  0
   -1.8088    3.7225   -2.3754 C   0  0  0  0  0  0  0  0  0  0  0  0
   -1.8479    4.8939   -3.6803 Cl  0  0  0  0  0  0  0  0  0  0  0  0
   -0.6682    2.9422   -2.1703 C   0  0  0  0  0  0  0  0  0  0  0  0
   -0.6336    2.0107   -1.1296 C   0  0  0  0  0  0  0  0  0  0  0  0
   -1.7393    1.8543   -0.2767 C   0  0  0  0  0  0  0  0  0  0  0  0
   -1.6764    0.8531    0.8440 C   0  0  0  0  0  0  0  0  0  0  0  0
   -4.9534    1.3223    0.1390 C   0  0  0  0  0  0  0  0  0  0  0  0
   -5.4469    0.8326    1.5055 C   0  0  0  0  0  0  0  0  0  0  0  0
   -8.5515    2.8366    4.0911 C   0  0  0  0  0  0  0  0  0  0  0  0
   -9.5454    2.1855    2.9553 S   0  0  0  0  0  0  0  0  0  0  0  0
   -8.8966    3.8344    4.9315 N   0  0  0  0  0  0  0  0  0  0  0  0
  -10.1665    4.5603    4.9878 C   0  0  0  0  0  0  0  0  0  0  0  0
  1  3  4  0
  1 14  4  0
  1  2  1  0
  3  4  4  0
  4  5  4  0
  5  6  4  0
  5 22  1  0
  6  7  1  0
  6 14  4  0
  7  8  1  0
  8  9  4  0
  8 12  4  0
  9 10  4  0
 10 11  4  0
 11 12  4  0
 12 13  1  0
 13 14  1  0
 13 15  1  6
 15 16  4  0
 15 20  4  0
 16 17  4  0
 17 18  4  0
 17 21  1  0
 18 19  4  0
 19 20  4  0
 23 24  4  0
 24 25  1  0
 25 26  1  0
 26 27  1  0
 27 28  1  0
 28 29  1  0
 29 30  1  0
 30 31  4  0
 31 32  4  0
 32 33  1  0
 32 34  4  0
 34 35  4  0
 35 36  4  0
 36 37  1  0
 29 38  1  0
 38 39  1  0
 24 40  4  0
 40 41  2  0
 40 42  4  0
 42 43  1  0
 39 26  1  0
 36 30  4  0
  2 23  4  0
  2 42  4  0
M  CHG  1  26   1
M  END
$$$$

     RDKit          3D

 43 49  0  0  0  0  0  0  0  0999 V2000
   -7.6410    4.9930    6.8080 C   0  0  0  0  0  0  0  0  0  1  0  0
   -7.7310    4.0530    5.7140 C   0  0  0  0  0  0  0  0  0  2  0  0
   -6.4520    5.6300    6.8680 N   0  0  0  0  0  0  0  0  0  0  0  0
   -6.2260    6.5240    7.8670 N   0  0  0  0  0  0  0  0  0  0  0  0
   -7.1930    6.7500    8.7820 C   0  0  0  0  0  0  0  0  0  0  0  0
   -8.4240    6.1170    8.7580 C   0  0  0  0  0  0  0  0  0  0  0  0
   -9.3950    6.3570    9.7450 N   0  0  0  0  0  0  0  0  0  0  0  0
  -10.5620    5.6840    9.7600 C   0  0  0  0  0  0  0  0  0  0  0  0
  -11.5770    5.6820   10.5960 N   0  0  0  0  0  0  0  0  0  0  0  0
  -12.4690    4.7490   10.1080 N   0  0  0  0  0  0  0  0  0  0  0  0
  -12.0160    4.1880    8.9920 N   0  0  0  0  0  0  0  0  0  0  0  0
  -10.8400    4.7900    8.7610 N   0  0  0  0  0  0  0  0  0  0  0  0
   -9.9950    4.4790    7.6090 C   0  0  0  0  0  0  0  0  0  0  0  0
   -8.6630    5.2070    7.7200 C   0  0  0  0  0  0  0  0  0  0  0  0
  -10.7490    4.8610    6.3730 C   0  0  0  0  0  0  0  0  0  0  0  0
  -11.0350    6.2020    6.1170 C   0  0  0  0  0  0  0  0  0  0  0  0
  -11.7370    6.5580    4.9650 C   0  0  0  0  0  0  0  0  0  0  0  0
  -12.1550    5.5730    4.0710 C   0  0  0  0  0  0  0  0  0  0  0  0
  -11.8700    4.2310    4.3270 C   0  0  0  0  0  0  0  0  0  0  0  0
  -11.1660    3.8760    5.4790 C   0  0  0  0  0  0  0  0  0  0  0  0
  -12.0160    7.8660    4.7150 O   0  0  0  0  0  0  0  0  0  0  0  0
   -6.8990    7.6510    9.7710 O   0  0  0  0  0  0  0  0  0  0  0  0
   -6.7955    3.1668    5.3108 N   0  0  0  0  0  0  0  0  0  0  0  0
   -7.2863    2.4286    4.3274 N   0  0  0  0  0  0  0  0  0  0  0  0
   -6.5249    1.3677    3.6583 C   0  0  0  0  0  0  0  0  0  0  0  0
   -6.2374    0.2535    4.5917 N   0  0  0  0  0  0  0  0  0  0  0  0
   -7.4988   -0.3201    5.1498 C   0  0  0  0  0  0  0  0  0  0  0  0
   -7.4086   -1.8280    5.3928 C   0  0  0  0  0  0  0  0  0  0  0  0
   -7.0888   -2.4835    4.1237 N   0  0  0  0  0  0  0  0  0  0  0  0
   -7.8682   -3.6025    3.6711 C   0  0  0  0  0  0  0  0  0  0  0  0
   -8.7204   -3.4496    2.5654 C   0  0  0  0  0  0  0  0  0  0  0  0
   -9.5062   -4.5174    2.1236 C   0  0  0  0  0  0  0  0  0  0  0  0
  -10.5737   -4.3103    0.7472 Cl  0  0  0  0  0  0  0  0  0  0  0  0
   -9.4505   -5.7453    2.7861 C   0  0  0  0  0  0  0  0  0  0  0  0
   -8.6047   -5.9113    3.8853 C   0  0  0  0  0  0  0  0  0  0  0  0
   -7.7961   -4.8515    4.3292 C   0  0  0  0  0  0  0  0  0  0  0  0
   -6.8939   -5.0562    5.5150 C   0  0  0  0  0  0  0  0  0  0  0  0
   -6.1096   -1.8644    3.2250 C   0  0  0  0  0  0  0  0  0  0  0  0
   -5.3401   -0.7496    3.9499 C   0  0  0  0  0  0  0  0  0  0  0  0
   -8.5587    2.8223    4.1042 C   0  0  0  0  0  0  0  0  0  0  0  0
   -9.5590    2.1717    2.9729 S   0  0  0  0  0  0  0  0  0  0  0  0
   -8.8992    3.8287    4.9368 N   0  0  0  0  0  0  0  0  0  0  0  0
  -10.1701    4.5529    4.9955 C   0  0  0  0  0  0  0  0  0  0  0  0
  1  3  4  0
  1 14  4  0
  1  2  1  0
  3  4  4  0
  4  5  4  0
  5  6  4  0
  5 22  1  0
  6  7  1  0
  6 14  4  0
  7  8  1  0
  8  9  4  0
  8 12  4  0
  9 10  4  0
 10 11  4  0
 11 12  4  0
 12 13  1  0
 13 14  1  0
 13 15  1  6
 15 16  4  0
 15 20  4  0
 16 17  4  0
 17 18  4  0
 17 21  1  0
 18 19  4  0
 19 20  4  0
 23 24  4  0
 24 25  1  0
 25 26  1  0
 26 27  1  0
 27 28  1  0
 28 29  1  0
 29 30  1  0
 30 31  4  0
 31 32  4  0
 32 33  1  0
 32 34  4  0
 34 35  4  0
 35 36  4  0
 36 37  1  0
 29 38  1  0
 38 39  1  0
 24 40  4  0
 40 41  2  0
 40 42  4  0
 42 43  1  0
 39 26  1  0
 36 30  4  0
  2 23  4  0
  2 42  4  0
M  CHG  1  26   1
M  END
$$$$

     RDKit          3D

 43 49  0  0  0  0  0  0  0  0999 V2000
   -7.6410    4.9930    6.8080 C   0  0  0  0  0  0  0  0  0  1  0  0
   -7.7310    4.0530    5.7140 C   0  0  0  0  0  0  0  0  0  2  0  0
   -6.4520    5.6300    6.8680 N   0  0  0  0  0  0  0  0  0  0  0  0
   -6.2260    6.5240    7.8670 N   0  0  0  0  0  0  0  0  0  0  0  0
   -7.1930    6.7500    8.7820 C   0  0  0  0  0  0  0  0  0  0  0  0
   -8.4240    6.1170    8.7580 C   0  0  0  0  0  0  0  0  0  0  0  0
   -9.3950    6.3570    9.7450 N   0  0  0  0  0  0  0  0  0  0  0  0
  -10.5620    5.6840    9.7600 C   0  0  0  0  0  0  0  0  0  0  0  0
  -11.5770    5.6820   10.5960 N   0  0  0  0  0  0  0  0  0  0  0  0
  -12.4690    4.7490   10.1080 N   0  0  0  0  0  0  0  0  0  0  0  0
  -12.0160    4.1880    8.9920 N   0  0  0  0  0  0  0  0  0  0  0  0
  -10.8400    4.7900    8.7610 N   0  0  0  0  0  0  0  0  0  0  0  0
   -9.9950    4.4790    7.6090 C   0  0  0  0  0  0  0  0  0  0  0  0
   -8.6630    5.2070    7.7200 C   0  0  0  0  0  0  0  0  0  0  0  0
  -10.7490    4.8610    6.3730 C   0  0  0  0  0  0  0  0  0  0  0  0
  -11.0350    6.2020    6.1170 C   0  0  0  0  0  0  0  0  0  0  0  0
  -11.7370    6.5580    4.9650 C   0  0  0  0  0  0  0  0  0  0  0  0
  -12.1550    5.5730    4.0710 C   0  0  0  0  0  0  0  0  0  0  0  0
  -11.8700    4.2310    4.3270 C   0  0  0  0  0  0  0  0  0  0  0  0
  -11.1660    3.8760    5.4790 C   0  0  0  0  0  0  0  0  0  0  0  0
  -12.0160    7.8660    4.7150 O   0  0  0  0  0  0  0  0  0  0  0  0
   -6.8990    7.6510    9.7710 O   0  0  0  0  0  0  0  0  0  0  0  0
   -6.8522    3.0717    5.4087 N   0  0  0  0  0  0  0  0  0  0  0  0
   -7.3073    2.3976    4.3651 N   0  0  0  0  0  0  0  0  0  0  0  0
   -6.6018    1.2653    3.7572 C   0  0  0  0  0  0  0  0  0  0  0  0
   -7.1586   -0.0279    4.2207 N   0  0  0  0  0  0  0  0  0  0  0  0
   -6.9562   -0.1900    5.6802 C   0  0  0  0  0  0  0  0  0  0  0  0
   -7.5182   -1.5301    6.1637 C   0  0  0  0  0  0  0  0  0  0  0  0
   -7.0053   -2.6292    5.3462 N   0  0  0  0  0  0  0  0  0  0  0  0
   -7.3304   -3.9816    5.7036 C   0  0  0  0  0  0  0  0  0  0  0  0
   -8.6459   -4.4365    5.5267 C   0  0  0  0  0  0  0  0  0  0  0  0
   -8.9885   -5.7529    5.8474 C   0  0  0  0  0  0  0  0  0  0  0  0
  -10.6335   -6.3132    5.6119 Cl  0  0  0  0  0  0  0  0  0  0  0  0
   -8.0179   -6.6253    6.3464 C   0  0  0  0  0  0  0  0  0  0  0  0
   -6.7080   -6.1808    6.5383 C   0  0  0  0  0  0  0  0  0  0  0  0
   -6.3544   -4.8547    6.2387 C   0  0  0  0  0  0  0  0  0  0  0  0
   -4.9397   -4.3993    6.4716 C   0  0  0  0  0  0  0  0  0  0  0  0
   -6.0935   -2.3512    4.2361 C   0  0  0  0  0  0  0  0  0  0  0  0
   -6.5993   -1.1548    3.4094 C   0  0  0  0  0  0  0  0  0  0  0  0
   -8.4976    2.9245    4.0117 C   0  0  0  0  0  0  0  0  0  0  0  0
   -9.3749    2.4480    2.7050 S   0  0  0  0  0  0  0  0  0  0  0  0
   -8.8370    3.9387    4.8377 N   0  0  0  0  0  0  0  0  0  0  0  0
   -9.9082    4.9197    4.6476 C   0  0  0  0  0  0  0  0  0  0  0  0
  1  3  4  0
  1 14  4  0
  1  2  1  0
  3  4  4  0
  4  5  4  0
  5  6  4  0
  5 22  1  0
  6  7  1  0
  6 14  4  0
  7  8  1  0
  8  9  4  0
  8 12  4  0
  9 10  4  0
 10 11  4  0
 11 12  4  0
 12 13  1  0
 13 14  1  0
 13 15  1  6
 15 16  4  0
 15 20  4  0
 16 17  4  0
 17 18  4  0
 17 21  1  0
 18 19  4  0
 19 20  4  0
 23 24  4  0
 24 25  1  0
 25 26  1  0
 26 27  1  0
 27 28  1  0
 28 29  1  0
 29 30  1  0
 30 31  4  0
 31 32  4  0
 32 33  1  0
 32 34  4  0
 34 35  4  0
 35 36  4  0
 36 37  1  0
 29 38  1  0
 38 39  1  0
 24 40  4  0
 40 41  2  0
 40 42  4  0
 42 43  1  0
 39 26  1  0
 36 30  4  0
  2 23  4  0
  2 42  4  0
M  CHG  1  26   1
M  END
$$$$

     RDKit          3D

 30 34  0  0  0  0  0  0  0  0999 V2000
   -7.6410    4.9930    6.8080 C   0  0  0  0  0  0  0  0  0  1  0  0
   -7.7310    4.0530    5.7140 C   0  0  0  0  0  0  0  0  0  2  0  0
   -6.4520    5.6300    6.8680 N   0  0  0  0  0  0  0  0  0  0  0  0
   -6.2260    6.5240    7.8670 N   0  0  0  0  0  0  0  0  0  0  0  0
   -7.1930    6.7500    8.7820 C   0  0  0  0  0  0  0  0  0  0  0  0
   -8.4240    6.1170    8.7580 C   0  0  0  0  0  0  0  0  0  0  0  0
   -9.3950    6.3570    9.7450 N   0  0  0  0  0  0  0  0  0  0  0  0
  -10.5620    5.6840    9.7600 C   0  0  0  0  0  0  0  0  0  0  0  0
  -11.5770    5.6820   10.5960 N   0  0  0  0  0  0  0  0  0  0  0  0
  -12.4690    4.7490   10.1080 N   0  0  0  0  0  0  0  0  0  0  0  0
  -12.0160    4.1880    8.9920 N   0  0  0  0  0  0  0  0  0  0  0  0
  -10.8400    4.7900    8.7610 N   0  0  0  0  0  0  0  0  0  0  0  0
   -9.9950    4.4790    7.6090 C   0  0  0  0  0  0  0  0  0  0  0  0
   -8.6630    5.2070    7.7200 C   0  0  0  0  0  0  0  0  0  0  0  0
  -10.7490    4.8610    6.3730 C   0  0  0  0  0  0  0  0  0  0  0  0
  -11.0350    6.2020    6.1170 C   0  0  0  0  0  0  0  0  0  0  0  0
  -11.7370    6.5580    4.9650 C   0  0  0  0  0  0  0  0  0  0  0  0
  -12.1550    5.5730    4.0710 C   0  0  0  0  0  0  0  0  0  0  0  0
  -11.8700    4.2310    4.3270 C   0  0  0  0  0  0  0  0  0  0  0  0
  -11.1660    3.8760    5.4790 C   0  0  0  0  0  0  0  0  0  0  0  0
  -12.0160    7.8660    4.7150 O   0  0  0  0  0  0  0  0  0  0  0  0
   -6.8990    7.6510    9.7710 O   0  0  0  0  0  0  0  0  0  0  0  0
   -7.1018    2.7804    5.7191 C   0  0  0  0  0  0  0  0  0  0  0  0
   -7.3126    1.7990    4.7495 C   0  0  0  0  0  0  0  0  0  0  0  0
   -8.2484    2.0071    3.7369 C   0  0  0  0  0  0  0  0  0  0  0  0
   -8.9735    3.1993    3.6878 C   0  0  0  0  0  0  0  0  0  0  0  0
   -8.7765    4.1990    4.6563 C   0  0  0  0  0  0  0  0  0  0  0  0
   -9.5494    5.4933    4.5160 C   0  0  0  0  0  0  0  0  0  0  0  0
   -9.1728    6.1828    3.3399 O   0  0  0  0  0  0  0  0  0  0  0  0
   -7.9775    6.9012    3.5575 C   0  0  0  0  0  0  0  0  0  0  0  0
  1  3  4  0
  1 14  4  0
  1  2  1  0
  3  4  4  0
  4  5  4  0
  5  6  4  0
  5 22  1  0
  6  7  1  0
  6 14  4  0
  7  8  1  0
  8  9  4  0
  8 12  4  0
  9 10  4  0
 10 11  4  0
 11 12  4  0
 12 13  1  0
 13 14  1  0
 13 15  1  6
 15 16  4  0
 15 20  4  0
 16 17  4  0
 17 18  4  0
 17 21  1  0
 18 19  4  0
 19 20  4  0
 23 24  4  0
 24 25  4  0
 25 26  4  0
 26 27  4  0
 27 28  1  0
 28 29  1  0
 29 30  1  0
  2 23  4  0
  2 27  4  0
M  END
$$$$

     RDKit          3D

 40 46  0  0  0  0  0  0  0  0999 V2000
   -7.6410    4.9930    6.8080 C   0  0  0  0  0  0  0  0  0  1  0  0
   -7.7310    4.0530    5.7140 C   0  0  0  0  0  0  0  0  0  2  0  0
   -6.4520    5.6300    6.8680 N   0  0  0  0  0  0  0  0  0  0  0  0
   -6.2260    6.5240    7.8670 N   0  0  0  0  0  0  0  0  0  0  0  0
   -7.1930    6.7500    8.7820 C   0  0  0  0  0  0  0  0  0  0  0  0
   -8.4240    6.1170    8.7580 C   0  0  0  0  0  0  0  0  0  0  0  0
   -9.3950    6.3570    9.7450 N   0  0  0  0  0  0  0  0  0  0  0  0
  -10.5620    5.6840    9.7600 C   0  0  0  0  0  0  0  0  0  0  0  0
  -11.5770    5.6820   10.5960 N   0  0  0  0  0  0  0  0  0  0  0  0
  -12.4690    4.7490   10.1080 N   0  0  0  0  0  0  0  0  0  0  0  0
  -12.0160    4.1880    8.9920 N   0  0  0  0  0  0  0  0  0  0  0  0
  -10.8400    4.7900    8.7610 N   0  0  0  0  0  0  0  0  0  0  0  0
   -9.9950    4.4790    7.6090 C   0  0  0  0  0  0  0  0  0  0  0  0
   -8.6630    5.2070    7.7200 C   0  0  0  0  0  0  0  0  0  0  0  0
  -10.7490    4.8610    6.3730 C   0  0  0  0  0  0  0  0  0  0  0  0
  -11.0350    6.2020    6.1170 C   0  0  0  0  0  0  0  0  0  0  0  0
  -11.7370    6.5580    4.9650 C   0  0  0  0  0  0  0  0  0  0  0  0
  -12.1550    5.5730    4.0710 C   0  0  0  0  0  0  0  0  0  0  0  0
  -11.8700    4.2310    4.3270 C   0  0  0  0  0  0  0  0  0  0  0  0
  -11.1660    3.8760    5.4790 C   0  0  0  0  0  0  0  0  0  0  0  0
  -12.0160    7.8660    4.7150 O   0  0  0  0  0  0  0  0  0  0  0  0
   -6.8990    7.6510    9.7710 O   0  0  0  0  0  0  0  0  0  0  0  0
   -6.9269    2.8959    5.5543 C   0  0  0  0  0  0  0  0  0  0  0  0
   -5.7454    2.6980    6.4594 C   0  0  0  0  0  0  0  0  0  0  0  0
   -7.1477    1.9768    4.5778 N   0  0  0  0  0  0  0  0  0  0  0  0
   -8.1978    2.0608    3.7252 C   0  0  0  0  0  0  0  0  0  0  0  0
   -9.1053    3.1188    3.8273 C   0  0  0  0  0  0  0  0  0  0  0  0
   -8.8992    4.1103    4.8010 C   0  0  0  0  0  0  0  0  0  0  0  0
   -9.8106    5.3131    4.7599 C   0  0  0  0  0  0  0  0  0  0  0  0
  -11.2621    4.8712    4.5675 C   0  0  0  0  0  0  0  0  0  0  0  0
  -11.4037    3.9342    3.4435 N   0  0  0  0  0  0  0  0  0  0  0  0
  -12.7329    3.6163    3.0032 C   0  0  0  0  0  0  0  0  0  0  0  0
  -13.5252    3.0530    3.8046 O   0  0  0  0  0  0  0  0  0  0  0  0
  -13.2167    3.9594    1.6142 C   0  0  0  0  0  0  0  0  0  0  0  0
  -12.7118    5.3364    1.1507 C   0  0  0  0  0  0  0  0  0  0  0  0
  -13.2203    5.6393   -0.2622 C   0  0  0  0  0  0  0  0  0  0  0  0
  -12.8584    4.4999   -1.2263 C   0  0  0  0  0  0  0  0  0  0  0  0
  -13.3693    3.2067   -0.7409 N   0  0  0  0  0  0  0  0  0  0  0  0
  -12.8288    2.8794    0.5887 C   0  0  0  0  0  0  0  0  0  0  0  0
  -10.2533    3.2296    2.8538 C   0  0  0  0  0  0  0  0  0  0  0  0
  1  3  4  0
  1 14  4  0
  1  2  1  0
  3  4  4  0
  4  5  4  0
  5  6  4  0
  5 22  1  0
  6  7  1  0
  6 14  4  0
  7  8  1  0
  8  9  4  0
  8 12  4  0
  9 10  4  0
 10 11  4  0
 11 12  4  0
 12 13  1  0
 13 14  1  0
 13 15  1  6
 15 16  4  0
 15 20  4  0
 16 17  4  0
 17 18  4  0
 17 21  1  0
 18 19  4  0
 19 20  4  0
 23 24  1  0
 23 25  4  0
 25 26  4  0
 26 27  4  0
 27 28  4  0
 28 29  1  0
 29 30  1  0
 30 31  1  0
 31 32  1  0
 32 33  2  0
 32 34  1  0
 34 35  1  0
 35 36  1  0
 36 37  1  0
 37 38  1  0
 38 39  1  0
 31 40  1  0
 39 34  1  0
 40 27  1  0
  2 23  4  0
  2 28  4  0
M  CHG  1  38   1
M  END
$$$$

     RDKit          3D

 40 46  0  0  0  0  0  0  0  0999 V2000
   -7.6410    4.9930    6.8080 C   0  0  0  0  0  0  0  0  0  1  0  0
   -7.7310    4.0530    5.7140 C   0  0  0  0  0  0  0  0  0  2  0  0
   -6.4520    5.6300    6.8680 N   0  0  0  0  0  0  0  0  0  0  0  0
   -6.2260    6.5240    7.8670 N   0  0  0  0  0  0  0  0  0  0  0  0
   -7.1930    6.7500    8.7820 C   0  0  0  0  0  0  0  0  0  0  0  0
   -8.4240    6.1170    8.7580 C   0  0  0  0  0  0  0  0  0  0  0  0
   -9.3950    6.3570    9.7450 N   0  0  0  0  0  0  0  0  0  0  0  0
  -10.5620    5.6840    9.7600 C   0  0  0  0  0  0  0  0  0  0  0  0
  -11.5770    5.6820   10.5960 N   0  0  0  0  0  0  0  0  0  0  0  0
  -12.4690    4.7490   10.1080 N   0  0  0  0  0  0  0  0  0  0  0  0
  -12.0160    4.1880    8.9920 N   0  0  0  0  0  0  0  0  0  0  0  0
  -10.8400    4.7900    8.7610 N   0  0  0  0  0  0  0  0  0  0  0  0
   -9.9950    4.4790    7.6090 C   0  0  0  0  0  0  0  0  0  0  0  0
   -8.6630    5.2070    7.7200 C   0  0  0  0  0  0  0  0  0  0  0  0
  -10.7490    4.8610    6.3730 C   0  0  0  0  0  0  0  0  0  0  0  0
  -11.0350    6.2020    6.1170 C   0  0  0  0  0  0  0  0  0  0  0  0
  -11.7370    6.5580    4.9650 C   0  0  0  0  0  0  0  0  0  0  0  0
  -12.1550    5.5730    4.0710 C   0  0  0  0  0  0  0  0  0  0  0  0
  -11.8700    4.2310    4.3270 C   0  0  0  0  0  0  0  0  0  0  0  0
  -11.1660    3.8760    5.4790 C   0  0  0  0  0  0  0  0  0  0  0  0
  -12.0160    7.8660    4.7150 O   0  0  0  0  0  0  0  0  0  0  0  0
   -6.8990    7.6510    9.7710 O   0  0  0  0  0  0  0  0  0  0  0  0
   -6.8391    2.9935    5.4275 C   0  0  0  0  0  0  0  0  0  0  0  0
   -5.5430    2.9080    6.1831 C   0  0  0  0  0  0  0  0  0  0  0  0
   -7.0862    2.0525    4.4779 N   0  0  0  0  0  0  0  0  0  0  0  0
   -8.2390    2.0201    3.7669 C   0  0  0  0  0  0  0  0  0  0  0  0
   -9.2233    2.9896    3.9731 C   0  0  0  0  0  0  0  0  0  0  0  0
   -8.9977    4.0062    4.9233 C   0  0  0  0  0  0  0  0  0  0  0  0
  -10.0532    5.0752    5.0979 C   0  0  0  0  0  0  0  0  0  0  0  0
  -10.7464    5.3617    3.7691 C   0  0  0  0  0  0  0  0  0  0  0  0
  -11.3126    4.1234    3.2153 N   0  0  0  0  0  0  0  0  0  0  0  0
  -12.6410    4.1001    2.6517 C   0  0  0  0  0  0  0  0  0  0  0  0
  -13.3345    3.0493    2.7428 O   0  0  0  0  0  0  0  0  0  0  0  0
  -13.2244    5.3013    1.9367 C   0  0  0  0  0  0  0  0  0  0  0  0
  -14.2926    5.9836    2.8230 C   0  0  0  0  0  0  0  0  0  0  0  0
  -15.2311    6.8435    1.9735 C   0  0  0  0  0  0  0  0  0  0  0  0
  -15.9514    6.0000    0.8933 C   0  0  0  0  0  0  0  0  0  0  0  0
  -15.2538    4.7363    0.5782 N   0  0  0  0  0  0  0  0  0  0  0  0
  -13.7922    4.9068    0.5430 C   0  0  0  0  0  0  0  0  0  0  0  0
  -10.5401    2.8699    3.2396 C   0  0  0  0  0  0  0  0  0  0  0  0
  1  3  4  0
  1 14  4  0
  1  2  1  0
  3  4  4  0
  4  5  4  0
  5  6  4  0
  5 22  1  0
  6  7  1  0
  6 14  4  0
  7  8  1  0
  8  9  4  0
  8 12  4  0
  9 10  4  0
 10 11  4  0
 11 12  4  0
 12 13  1  0
 13 14  1  0
 13 15  1  6
 15 16  4  0
 15 20  4  0
 16 17  4  0
 17 18  4  0
 17 21  1  0
 18 19  4  0
 19 20  4  0
 23 24  1  0
 23 25  4  0
 25 26  4  0
 26 27  4  0
 27 28  4  0
 28 29  1  0
 29 30  1  0
 30 31  1  0
 31 32  1  0
 32 33  2  0
 32 34  1  0
 34 35  1  0
 35 36  1  0
 36 37  1  0
 37 38  1  0
 38 39  1  0
 31 40  1  0
 39 34  1  0
 40 27  1  0
  2 23  4  0
  2 28  4  0
M  CHG  1  38   1
M  END
$$$$

     RDKit          3D

 40 45  0  0  0  0  0  0  0  0999 V2000
   -7.6410    4.9930    6.8080 C   0  0  0  0  0  0  0  0  0  1  0  0
   -7.7310    4.0530    5.7140 C   0  0  0  0  0  0  0  0  0  2  0  0
   -6.4520    5.6300    6.8680 N   0  0  0  0  0  0  0  0  0  0  0  0
   -6.2260    6.5240    7.8670 N   0  0  0  0  0  0  0  0  0  0  0  0
   -7.1930    6.7500    8.7820 C   0  0  0  0  0  0  0  0  0  0  0  0
   -8.4240    6.1170    8.7580 C   0  0  0  0  0  0  0  0  0  0  0  0
   -9.3950    6.3570    9.7450 N   0  0  0  0  0  0  0  0  0  0  0  0
  -10.5620    5.6840    9.7600 C   0  0  0  0  0  0  0  0  0  0  0  0
  -11.5770    5.6820   10.5960 N   0  0  0  0  0  0  0  0  0  0  0  0
  -12.4690    4.7490   10.1080 N   0  0  0  0  0  0  0  0  0  0  0  0
  -12.0160    4.1880    8.9920 N   0  0  0  0  0  0  0  0  0  0  0  0
  -10.8400    4.7900    8.7610 N   0  0  0  0  0  0  0  0  0  0  0  0
   -9.9950    4.4790    7.6090 C   0  0  0  0  0  0  0  0  0  0  0  0
   -8.6630    5.2070    7.7200 C   0  0  0  0  0  0  0  0  0  0  0  0
  -10.7490    4.8610    6.3730 C   0  0  0  0  0  0  0  0  0  0  0  0
  -11.0350    6.2020    6.1170 C   0  0  0  0  0  0  0  0  0  0  0  0
  -11.7370    6.5580    4.9650 C   0  0  0  0  0  0  0  0  0  0  0  0
  -12.1550    5.5730    4.0710 C   0  0  0  0  0  0  0  0  0  0  0  0
  -11.8700    4.2310    4.3270 C   0  0  0  0  0  0  0  0  0  0  0  0
  -11.1660    3.8760    5.4790 C   0  0  0  0  0  0  0  0  0  0  0  0
  -12.0160    7.8660    4.7150 O   0  0  0  0  0  0  0  0  0  0  0  0
   -6.8990    7.6510    9.7710 O   0  0  0  0  0  0  0  0  0  0  0  0
   -6.9478    2.8948    5.5208 C   0  0  0  0  0  0  0  0  0  0  0  0
   -5.7382    2.5554    6.3316 C   0  0  0  0  0  0  0  0  0  0  0  0
   -7.4768    1.9990    4.2028 S   0  0  0  0  0  0  0  0  0  0  0  0
   -8.8078    2.9682    3.8456 C   0  0  0  0  0  0  0  0  0  0  0  0
   -9.6668    2.8006    2.7058 N   0  0  0  0  0  0  0  0  0  0  0  0
   -9.6915    1.6074    1.9096 C   0  0  0  0  0  0  0  0  0  0  0  0
   -9.4259    0.4949    2.4383 O   0  0  0  0  0  0  0  0  0  0  0  0
  -10.0638    1.6584    0.4801 C   0  0  0  0  0  0  0  0  0  0  0  0
   -9.9488    2.7146   -0.4132 C   0  0  0  0  0  0  0  0  0  0  0  0
   -9.4376    4.0945   -0.1393 C   0  0  0  0  0  0  0  0  0  0  0  0
  -10.3675    2.3161   -1.6303 N   0  0  0  0  0  0  0  0  0  0  0  0
  -10.7178    1.0670   -1.5280 O   0  0  0  0  0  0  0  0  0  0  0  0
  -10.5562    0.6270   -0.3025 C   0  0  0  0  0  0  0  0  0  0  0  0
  -10.8610   -0.7705    0.1255 C   0  0  0  0  0  0  0  0  0  0  0  0
   -8.8401    4.0463    4.7374 C   0  0  0  0  0  0  0  0  0  0  0  0
   -9.8542    5.1220    4.6732 C   0  0  0  0  0  0  0  0  0  0  0  0
   -9.4757    6.4934    4.8047 N   0  0  0  0  0  0  0  0  0  0  0  0
  -11.0665    4.8278    4.4945 O   0  0  0  0  0  0  0  0  0  0  0  0
  1  3  4  0
  1 14  4  0
  1  2  1  0
  3  4  4  0
  4  5  4  0
  5  6  4  0
  5 22  1  0
  6  7  1  0
  6 14  4  0
  7  8  1  0
  8  9  4  0
  8 12  4  0
  9 10  4  0
 10 11  4  0
 11 12  4  0
 12 13  1  0
 13 14  1  0
 13 15  1  6
 15 16  4  0
 15 20  4  0
 16 17  4  0
 17 18  4  0
 17 21  1  0
 18 19  4  0
 19 20  4  0
 23 24  1  0
 23 25  4  0
 25 26  4  0
 26 27  1  0
 27 28  1  0
 28 29  2  0
 28 30  1  0
 30 31  4  0
 31 32  1  0
 31 33  4  0
 33 34  4  0
 34 35  4  0
 35 36  1  0
 26 37  4  0
 37 38  1  0
 38 39  1  0
 38 40  2  0
 35 30  4  0
  2 23  4  0
  2 37  4  0
M  END
$$$$

     RDKit          3D

 40 45  0  0  0  0  0  0  0  0999 V2000
   -7.6410    4.9930    6.8080 C   0  0  0  0  0  0  0  0  0  1  0  0
   -7.7310    4.0530    5.7140 C   0  0  0  0  0  0  0  0  0  2  0  0
   -6.4520    5.6300    6.8680 N   0  0  0  0  0  0  0  0  0  0  0  0
   -6.2260    6.5240    7.8670 N   0  0  0  0  0  0  0  0  0  0  0  0
   -7.1930    6.7500    8.7820 C   0  0  0  0  0  0  0  0  0  0  0  0
   -8.4240    6.1170    8.7580 C   0  0  0  0  0  0  0  0  0  0  0  0
   -9.3950    6.3570    9.7450 N   0  0  0  0  0  0  0  0  0  0  0  0
  -10.5620    5.6840    9.7600 C   0  0  0  0  0  0  0  0  0  0  0  0
  -11.5770    5.6820   10.5960 N   0  0  0  0  0  0  0  0  0  0  0  0
  -12.4690    4.7490   10.1080 N   0  0  0  0  0  0  0  0  0  0  0  0
  -12.0160    4.1880    8.9920 N   0  0  0  0  0  0  0  0  0  0  0  0
  -10.8400    4.7900    8.7610 N   0  0  0  0  0  0  0  0  0  0  0  0
   -9.9950    4.4790    7.6090 C   0  0  0  0  0  0  0  0  0  0  0  0
   -8.6630    5.2070    7.7200 C   0  0  0  0  0  0  0  0  0  0  0  0
  -10.7490    4.8610    6.3730 C   0  0  0  0  0  0  0  0  0  0  0  0
  -11.0350    6.2020    6.1170 C   0  0  0  0  0  0  0  0  0  0  0  0
  -11.7370    6.5580    4.9650 C   0  0  0  0  0  0  0  0  0  0  0  0
  -12.1550    5.5730    4.0710 C   0  0  0  0  0  0  0  0  0  0  0  0
  -11.8700    4.2310    4.3270 C   0  0  0  0  0  0  0  0  0  0  0  0
  -11.1660    3.8760    5.4790 C   0  0  0  0  0  0  0  0  0  0  0  0
  -12.0160    7.8660    4.7150 O   0  0  0  0  0  0  0  0  0  0  0  0
   -6.8990    7.6510    9.7710 O   0  0  0  0  0  0  0  0  0  0  0  0
   -6.9597    2.8862    5.5322 C   0  0  0  0  0  0  0  0  0  0  0  0
   -5.7715    2.5267    6.3672 C   0  0  0  0  0  0  0  0  0  0  0  0
   -7.5042    1.9793    4.2291 S   0  0  0  0  0  0  0  0  0  0  0  0
   -8.8073    2.9733    3.8406 C   0  0  0  0  0  0  0  0  0  0  0  0
   -9.7179    2.7717    2.7439 N   0  0  0  0  0  0  0  0  0  0  0  0
   -9.6575    1.6607    1.8361 C   0  0  0  0  0  0  0  0  0  0  0  0
   -8.5681    1.0578    1.6429 O   0  0  0  0  0  0  0  0  0  0  0  0
  -10.8572    1.2429    1.0794 C   0  0  0  0  0  0  0  0  0  0  0  0
  -10.9032    0.5842   -0.1388 C   0  0  0  0  0  0  0  0  0  0  0  0
   -9.7404    0.1627   -0.9782 C   0  0  0  0  0  0  0  0  0  0  0  0
  -12.1868    0.3612   -0.4809 N   0  0  0  0  0  0  0  0  0  0  0  0
  -12.9267    0.8466    0.4736 O   0  0  0  0  0  0  0  0  0  0  0  0
  -12.1934    1.3727    1.4277 C   0  0  0  0  0  0  0  0  0  0  0  0
  -12.7665    1.9870    2.6639 C   0  0  0  0  0  0  0  0  0  0  0  0
   -8.8388    4.0488    4.7371 C   0  0  0  0  0  0  0  0  0  0  0  0
   -9.8553    5.1214    4.6887 C   0  0  0  0  0  0  0  0  0  0  0  0
   -9.4729    6.4939    4.7873 N   0  0  0  0  0  0  0  0  0  0  0  0
  -11.0740    4.8264    4.5666 O   0  0  0  0  0  0  0  0  0  0  0  0
  1  3  4  0
  1 14  4  0
  1  2  1  0
  3  4  4  0
  4  5  4  0
  5  6  4  0
  5 22  1  0
  6  7  1  0
  6 14  4  0
  7  8  1  0
  8  9  4  0
  8 12  4  0
  9 10  4  0
 10 11  4  0
 11 12  4  0
 12 13  1  0
 13 14  1  0
 13 15  1  6
 15 16  4  0
 15 20  4  0
 16 17  4  0
 17 18  4  0
 17 21  1  0
 18 19  4  0
 19 20  4  0
 23 24  1  0
 23 25  4  0
 25 26  4  0
 26 27  1  0
 27 28  1  0
 28 29  2  0
 28 30  1  0
 30 31  4  0
 31 32  1  0
 31 33  4  0
 33 34  4  0
 34 35  4  0
 35 36  1  0
 26 37  4  0
 37 38  1  0
 38 39  1  0
 38 40  2  0
 35 30  4  0
  2 23  4  0
  2 37  4  0
M  END
$$$$

     RDKit          3D

 40 45  0  0  0  0  0  0  0  0999 V2000
   -7.6410    4.9930    6.8080 C   0  0  0  0  0  0  0  0  0  1  0  0
   -7.7310    4.0530    5.7140 C   0  0  0  0  0  0  0  0  0  2  0  0
   -6.4520    5.6300    6.8680 N   0  0  0  0  0  0  0  0  0  0  0  0
   -6.2260    6.5240    7.8670 N   0  0  0  0  0  0  0  0  0  0  0  0
   -7.1930    6.7500    8.7820 C   0  0  0  0  0  0  0  0  0  0  0  0
   -8.4240    6.1170    8.7580 C   0  0  0  0  0  0  0  0  0  0  0  0
   -9.3950    6.3570    9.7450 N   0  0  0  0  0  0  0  0  0  0  0  0
  -10.5620    5.6840    9.7600 C   0  0  0  0  0  0  0  0  0  0  0  0
  -11.5770    5.6820   10.5960 N   0  0  0  0  0  0  0  0  0  0  0  0
  -12.4690    4.7490   10.1080 N   0  0  0  0  0  0  0  0  0  0  0  0
  -12.0160    4.1880    8.9920 N   0  0  0  0  0  0  0  0  0  0  0  0
  -10.8400    4.7900    8.7610 N   0  0  0  0  0  0  0  0  0  0  0  0
   -9.9950    4.4790    7.6090 C   0  0  0  0  0  0  0  0  0  0  0  0
   -8.6630    5.2070    7.7200 C   0  0  0  0  0  0  0  0  0  0  0  0
  -10.7490    4.8610    6.3730 C   0  0  0  0  0  0  0  0  0  0  0  0
  -11.0350    6.2020    6.1170 C   0  0  0  0  0  0  0  0  0  0  0  0
  -11.7370    6.5580    4.9650 C   0  0  0  0  0  0  0  0  0  0  0  0
  -12.1550    5.5730    4.0710 C   0  0  0  0  0  0  0  0  0  0  0  0
  -11.8700    4.2310    4.3270 C   0  0  0  0  0  0  0  0  0  0  0  0
  -11.1660    3.8760    5.4790 C   0  0  0  0  0  0  0  0  0  0  0  0
  -12.0160    7.8660    4.7150 O   0  0  0  0  0  0  0  0  0  0  0  0
   -6.8990    7.6510    9.7710 O   0  0  0  0  0  0  0  0  0  0  0  0
   -6.9553    2.8911    5.5224 C   0  0  0  0  0  0  0  0  0  0  0  0
   -5.7639    2.5304    6.3519 C   0  0  0  0  0  0  0  0  0  0  0  0
   -7.4770    2.0130    4.1904 S   0  0  0  0  0  0  0  0  0  0  0  0
   -8.7912    2.9987    3.8174 C   0  0  0  0  0  0  0  0  0  0  0  0
   -9.6244    2.8758    2.6497 N   0  0  0  0  0  0  0  0  0  0  0  0
   -9.7227    1.6919    1.8390 C   0  0  0  0  0  0  0  0  0  0  0  0
   -9.0279    0.6752    2.1054 O   0  0  0  0  0  0  0  0  0  0  0  0
  -10.6214    1.6518    0.6667 C   0  0  0  0  0  0  0  0  0  0  0  0
  -10.4202    0.9722   -0.5229 C   0  0  0  0  0  0  0  0  0  0  0  0
   -9.2354    0.1384   -0.8903 C   0  0  0  0  0  0  0  0  0  0  0  0
  -11.4801    1.1591   -1.3327 N   0  0  0  0  0  0  0  0  0  0  0  0
  -12.3222    1.9160   -0.6905 O   0  0  0  0  0  0  0  0  0  0  0  0
  -11.8708    2.2301    0.5024 C   0  0  0  0  0  0  0  0  0  0  0  0
  -12.6359    3.0597    1.4809 C   0  0  0  0  0  0  0  0  0  0  0  0
   -8.8305    4.0601    4.7296 C   0  0  0  0  0  0  0  0  0  0  0  0
   -9.8321    5.1457    4.6760 C   0  0  0  0  0  0  0  0  0  0  0  0
  -11.2140    4.8529    4.4694 N   0  0  0  0  0  0  0  0  0  0  0  0
   -9.4701    6.3417    4.8382 O   0  0  0  0  0  0  0  0  0  0  0  0
  1  3  4  0
  1 14  4  0
  1  2  1  0
  3  4  4  0
  4  5  4  0
  5  6  4  0
  5 22  1  0
  6  7  1  0
  6 14  4  0
  7  8  1  0
  8  9  4  0
  8 12  4  0
  9 10  4  0
 10 11  4  0
 11 12  4  0
 12 13  1  0
 13 14  1  0
 13 15  1  6
 15 16  4  0
 15 20  4  0
 16 17  4  0
 17 18  4  0
 17 21  1  0
 18 19  4  0
 19 20  4  0
 23 24  1  0
 23 25  4  0
 25 26  4  0
 26 27  1  0
 27 28  1  0
 28 29  2  0
 28 30  1  0
 30 31  4  0
 31 32  1  0
 31 33  4  0
 33 34  4  0
 34 35  4  0
 35 36  1  0
 26 37  4  0
 37 38  1  0
 38 39  1  0
 38 40  2  0
 35 30  4  0
  2 23  4  0
  2 37  4  0
M  END
$$$$

     RDKit          3D

 40 45  0  0  0  0  0  0  0  0999 V2000
   -7.6410    4.9930    6.8080 C   0  0  0  0  0  0  0  0  0  1  0  0
   -7.7310    4.0530    5.7140 C   0  0  0  0  0  0  0  0  0  2  0  0
   -6.4520    5.6300    6.8680 N   0  0  0  0  0  0  0  0  0  0  0  0
   -6.2260    6.5240    7.8670 N   0  0  0  0  0  0  0  0  0  0  0  0
   -7.1930    6.7500    8.7820 C   0  0  0  0  0  0  0  0  0  0  0  0
   -8.4240    6.1170    8.7580 C   0  0  0  0  0  0  0  0  0  0  0  0
   -9.3950    6.3570    9.7450 N   0  0  0  0  0  0  0  0  0  0  0  0
  -10.5620    5.6840    9.7600 C   0  0  0  0  0  0  0  0  0  0  0  0
  -11.5770    5.6820   10.5960 N   0  0  0  0  0  0  0  0  0  0  0  0
  -12.4690    4.7490   10.1080 N   0  0  0  0  0  0  0  0  0  0  0  0
  -12.0160    4.1880    8.9920 N   0  0  0  0  0  0  0  0  0  0  0  0
  -10.8400    4.7900    8.7610 N   0  0  0  0  0  0  0  0  0  0  0  0
   -9.9950    4.4790    7.6090 C   0  0  0  0  0  0  0  0  0  0  0  0
   -8.6630    5.2070    7.7200 C   0  0  0  0  0  0  0  0  0  0  0  0
  -10.7490    4.8610    6.3730 C   0  0  0  0  0  0  0  0  0  0  0  0
  -11.0350    6.2020    6.1170 C   0  0  0  0  0  0  0  0  0  0  0  0
  -11.7370    6.5580    4.9650 C   0  0  0  0  0  0  0  0  0  0  0  0
  -12.1550    5.5730    4.0710 C   0  0  0  0  0  0  0  0  0  0  0  0
  -11.8700    4.2310    4.3270 C   0  0  0  0  0  0  0  0  0  0  0  0
  -11.1660    3.8760    5.4790 C   0  0  0  0  0  0  0  0  0  0  0  0
  -12.0160    7.8660    4.7150 O   0  0  0  0  0  0  0  0  0  0  0  0
   -6.8990    7.6510    9.7710 O   0  0  0  0  0  0  0  0  0  0  0  0
   -8.8106    4.0908    4.7350 C   0  0  0  0  0  0  0  0  0  0  0  0
   -9.9024    5.1120    4.6805 C   0  0  0  0  0  0  0  0  0  0  0  0
   -8.6468    2.8317    3.6362 S   0  0  0  0  0  0  0  0  0  0  0  0
   -7.2675    2.1645    4.3339 C   0  0  0  0  0  0  0  0  0  0  0  0
   -6.6025    0.9789    3.8700 N   0  0  0  0  0  0  0  0  0  0  0  0
   -7.2339    0.0116    3.0224 C   0  0  0  0  0  0  0  0  0  0  0  0
   -6.5718   -0.5010    2.0814 O   0  0  0  0  0  0  0  0  0  0  0  0
   -8.6272   -0.4275    3.2493 C   0  0  0  0  0  0  0  0  0  0  0  0
   -9.5469   -0.8387    2.3005 C   0  0  0  0  0  0  0  0  0  0  0  0
   -9.3392   -0.9087    0.8223 C   0  0  0  0  0  0  0  0  0  0  0  0
  -10.6972   -1.1841    2.9105 N   0  0  0  0  0  0  0  0  0  0  0  0
  -10.5196   -1.0090    4.1883 O   0  0  0  0  0  0  0  0  0  0  0  0
   -9.3085   -0.5718    4.4479 C   0  0  0  0  0  0  0  0  0  0  0  0
   -8.8075   -0.2977    5.8295 C   0  0  0  0  0  0  0  0  0  0  0  0
   -6.9066    2.9187    5.4543 C   0  0  0  0  0  0  0  0  0  0  0  0
   -5.7792    2.5668    6.3435 C   0  0  0  0  0  0  0  0  0  0  0  0
   -5.9487    2.5467    7.7614 N   0  0  0  0  0  0  0  0  0  0  0  0
   -4.6554    2.2811    5.8520 O   0  0  0  0  0  0  0  0  0  0  0  0
  1  3  4  0
  1 14  4  0
  1  2  1  0
  3  4  4  0
  4  5  4  0
  5  6  4  0
  5 22  1  0
  6  7  1  0
  6 14  4  0
  7  8  1  0
  8  9  4  0
  8 12  4  0
  9 10  4  0
 10 11  4  0
 11 12  4  0
 12 13  1  0
 13 14  1  0
 13 15  1  6
 15 16  4  0
 15 20  4  0
 16 17  4  0
 17 18  4  0
 17 21  1  0
 18 19  4  0
 19 20  4  0
 23 24  1  0
 23 25  4  0
 25 26  4  0
 26 27  1  0
 27 28  1  0
 28 29  2  0
 28 30  1  0
 30 31  4  0
 31 32  1  0
 31 33  4  0
 33 34  4  0
 34 35  4  0
 35 36  1  0
 26 37  4  0
 37 38  1  0
 38 39  1  0
 38 40  2  0
 35 30  4  0
  2 23  4  0
  2 37  4  0
M  END
$$$$

     RDKit          3D

 38 43  0  0  0  0  0  0  0  0999 V2000
   -7.6410    4.9930    6.8080 C   0  0  0  0  0  0  0  0  0  1  0  0
   -7.7310    4.0530    5.7140 C   0  0  0  0  0  0  0  0  0  2  0  0
   -6.4520    5.6300    6.8680 N   0  0  0  0  0  0  0  0  0  0  0  0
   -6.2260    6.5240    7.8670 N   0  0  0  0  0  0  0  0  0  0  0  0
   -7.1930    6.7500    8.7820 C   0  0  0  0  0  0  0  0  0  0  0  0
   -8.4240    6.1170    8.7580 C   0  0  0  0  0  0  0  0  0  0  0  0
   -9.3950    6.3570    9.7450 N   0  0  0  0  0  0  0  0  0  0  0  0
  -10.5620    5.6840    9.7600 C   0  0  0  0  0  0  0  0  0  0  0  0
  -11.5770    5.6820   10.5960 N   0  0  0  0  0  0  0  0  0  0  0  0
  -12.4690    4.7490   10.1080 N   0  0  0  0  0  0  0  0  0  0  0  0
  -12.0160    4.1880    8.9920 N   0  0  0  0  0  0  0  0  0  0  0  0
  -10.8400    4.7900    8.7610 N   0  0  0  0  0  0  0  0  0  0  0  0
   -9.9950    4.4790    7.6090 C   0  0  0  0  0  0  0  0  0  0  0  0
   -8.6630    5.2070    7.7200 C   0  0  0  0  0  0  0  0  0  0  0  0
  -10.7490    4.8610    6.3730 C   0  0  0  0  0  0  0  0  0  0  0  0
  -11.0350    6.2020    6.1170 C   0  0  0  0  0  0  0  0  0  0  0  0
  -11.7370    6.5580    4.9650 C   0  0  0  0  0  0  0  0  0  0  0  0
  -12.1550    5.5730    4.0710 C   0  0  0  0  0  0  0  0  0  0  0  0
  -11.8700    4.2310    4.3270 C   0  0  0  0  0  0  0  0  0  0  0  0
  -11.1660    3.8760    5.4790 C   0  0  0  0  0  0  0  0  0  0  0  0
  -12.0160    7.8660    4.7150 O   0  0  0  0  0  0  0  0  0  0  0  0
   -6.8990    7.6510    9.7710 O   0  0  0  0  0  0  0  0  0  0  0  0
   -6.9589    2.9867    5.4226 N   0  0  0  0  0  0  0  0  0  0  0  0
   -7.4685    2.3036    4.4072 N   0  0  0  0  0  0  0  0  0  0  0  0
   -8.6206    2.9104    4.0658 C   0  0  0  0  0  0  0  0  0  0  0  0
   -9.6741    2.3528    2.7226 S   0  0  0  0  0  0  0  0  0  0  0  0
  -10.7639    1.3544    3.7941 C   0  0  0  0  0  0  0  0  0  0  0  0
  -10.0362    0.1547    4.3272 C   0  0  0  0  0  0  0  0  0  0  0  0
   -9.8723    0.0318    5.5703 O   0  0  0  0  0  0  0  0  0  0  0  0
   -9.4705   -0.8177    3.4368 N   0  0  0  0  0  0  0  0  0  0  0  0
   -8.0199   -1.0252    3.4494 C   0  0  0  0  0  0  0  0  0  0  0  0
  -10.3005   -1.4880    2.4677 C   0  0  0  0  0  0  0  0  0  0  0  0
   -9.8856   -1.8426    1.2633 C   0  0  0  0  0  0  0  0  0  0  0  0
  -10.9217   -2.5870    0.5073 C   0  0  0  0  0  0  0  0  0  0  0  0
  -12.1038   -2.6986    1.4778 C   0  0  0  0  0  0  0  0  0  0  0  0
  -11.6831   -1.9614    2.7548 C   0  0  0  0  0  0  0  0  0  0  0  0
   -8.8622    3.9858    4.8386 N   0  0  0  0  0  0  0  0  0  0  0  0
   -9.9666    4.9370    4.7219 C   0  0  0  0  0  0  0  0  0  0  0  0
  1  3  4  0
  1 14  4  0
  1  2  1  0
  3  4  4  0
  4  5  4  0
  5  6  4  0
  5 22  1  0
  6  7  1  0
  6 14  4  0
  7  8  1  0
  8  9  4  0
  8 12  4  0
  9 10  4  0
 10 11  4  0
 11 12  4  0
 12 13  1  0
 13 14  1  0
 13 15  1  6
 15 16  4  0
 15 20  4  0
 16 17  4  0
 17 18  4  0
 17 21  1  0
 18 19  4  0
 19 20  4  0
 23 24  4  0
 24 25  4  0
 25 26  1  0
 26 27  1  0
 27 28  1  0
 28 29  2  0
 28 30  1  0
 30 31  1  0
 30 32  1  0
 32 33  2  0
 33 34  1  0
 34 35  1  0
 35 36  1  0
 25 37  4  0
 37 38  1  0
 36 32  1  0
  2 23  4  0
  2 37  4  0
M  END
$$$$

     RDKit          3D

 38 43  0  0  0  0  0  0  0  0999 V2000
   -7.6410    4.9930    6.8080 C   0  0  0  0  0  0  0  0  0  1  0  0
   -7.7310    4.0530    5.7140 C   0  0  0  0  0  0  0  0  0  2  0  0
   -6.4520    5.6300    6.8680 N   0  0  0  0  0  0  0  0  0  0  0  0
   -6.2260    6.5240    7.8670 N   0  0  0  0  0  0  0  0  0  0  0  0
   -7.1930    6.7500    8.7820 C   0  0  0  0  0  0  0  0  0  0  0  0
   -8.4240    6.1170    8.7580 C   0  0  0  0  0  0  0  0  0  0  0  0
   -9.3950    6.3570    9.7450 N   0  0  0  0  0  0  0  0  0  0  0  0
  -10.5620    5.6840    9.7600 C   0  0  0  0  0  0  0  0  0  0  0  0
  -11.5770    5.6820   10.5960 N   0  0  0  0  0  0  0  0  0  0  0  0
  -12.4690    4.7490   10.1080 N   0  0  0  0  0  0  0  0  0  0  0  0
  -12.0160    4.1880    8.9920 N   0  0  0  0  0  0  0  0  0  0  0  0
  -10.8400    4.7900    8.7610 N   0  0  0  0  0  0  0  0  0  0  0  0
   -9.9950    4.4790    7.6090 C   0  0  0  0  0  0  0  0  0  0  0  0
   -8.6630    5.2070    7.7200 C   0  0  0  0  0  0  0  0  0  0  0  0
  -10.7490    4.8610    6.3730 C   0  0  0  0  0  0  0  0  0  0  0  0
  -11.0350    6.2020    6.1170 C   0  0  0  0  0  0  0  0  0  0  0  0
  -11.7370    6.5580    4.9650 C   0  0  0  0  0  0  0  0  0  0  0  0
  -12.1550    5.5730    4.0710 C   0  0  0  0  0  0  0  0  0  0  0  0
  -11.8700    4.2310    4.3270 C   0  0  0  0  0  0  0  0  0  0  0  0
  -11.1660    3.8760    5.4790 C   0  0  0  0  0  0  0  0  0  0  0  0
  -12.0160    7.8660    4.7150 O   0  0  0  0  0  0  0  0  0  0  0  0
   -6.8990    7.6510    9.7710 O   0  0  0  0  0  0  0  0  0  0  0  0
   -6.9630    2.9795    5.4353 N   0  0  0  0  0  0  0  0  0  0  0  0
   -7.4625    2.3007    4.4127 N   0  0  0  0  0  0  0  0  0  0  0  0
   -8.6022    2.9193    4.0524 C   0  0  0  0  0  0  0  0  0  0  0  0
   -9.6388    2.3757    2.6901 S   0  0  0  0  0  0  0  0  0  0  0  0
   -8.7598    3.3723    1.4304 C   0  0  0  0  0  0  0  0  0  0  0  0
   -7.4916    2.7161    0.9451 C   0  0  0  0  0  0  0  0  0  0  0  0
   -7.1227    1.6144    1.4357 O   0  0  0  0  0  0  0  0  0  0  0  0
   -6.7083    3.3328   -0.0961 N   0  0  0  0  0  0  0  0  0  0  0  0
   -6.4987    4.7847   -0.0594 C   0  0  0  0  0  0  0  0  0  0  0  0
   -6.2520    2.5513   -1.2278 C   0  0  0  0  0  0  0  0  0  0  0  0
   -5.8771    3.0734   -2.3864 C   0  0  0  0  0  0  0  0  0  0  0  0
   -5.5116    2.0411   -3.3856 C   0  0  0  0  0  0  0  0  0  0  0  0
   -5.6455    0.7148   -2.6352 C   0  0  0  0  0  0  0  0  0  0  0  0
   -6.2147    1.0610   -1.2570 C   0  0  0  0  0  0  0  0  0  0  0  0
   -8.8501    3.9928    4.8268 N   0  0  0  0  0  0  0  0  0  0  0  0
   -9.9482    4.9482    4.6972 C   0  0  0  0  0  0  0  0  0  0  0  0
  1  3  4  0
  1 14  4  0
  1  2  1  0
  3  4  4  0
  4  5  4  0
  5  6  4  0
  5 22  1  0
  6  7  1  0
  6 14  4  0
  7  8  1  0
  8  9  4  0
  8 12  4  0
  9 10  4  0
 10 11  4  0
 11 12  4  0
 12 13  1  0
 13 14  1  0
 13 15  1  6
 15 16  4  0
 15 20  4  0
 16 17  4  0
 17 18  4  0
 17 21  1  0
 18 19  4  0
 19 20  4  0
 23 24  4  0
 24 25  4  0
 25 26  1  0
 26 27  1  0
 27 28  1  0
 28 29  2  0
 28 30  1  0
 30 31  1  0
 30 32  1  0
 32 33  2  0
 33 34  1  0
 34 35  1  0
 35 36  1  0
 25 37  4  0
 37 38  1  0
 36 32  1  0
  2 23  4  0
  2 37  4  0
M  END
$$$$

     RDKit          3D

 42 47  0  0  0  0  0  0  0  0999 V2000
   -7.6410    4.9930    6.8080 C   0  0  0  0  0  0  0  0  0  1  0  0
   -7.7310    4.0530    5.7140 C   0  0  0  0  0  0  0  0  0  2  0  0
   -6.4520    5.6300    6.8680 N   0  0  0  0  0  0  0  0  0  0  0  0
   -6.2260    6.5240    7.8670 N   0  0  0  0  0  0  0  0  0  0  0  0
   -7.1930    6.7500    8.7820 C   0  0  0  0  0  0  0  0  0  0  0  0
   -8.4240    6.1170    8.7580 C   0  0  0  0  0  0  0  0  0  0  0  0
   -9.3950    6.3570    9.7450 N   0  0  0  0  0  0  0  0  0  0  0  0
  -10.5620    5.6840    9.7600 C   0  0  0  0  0  0  0  0  0  0  0  0
  -11.5770    5.6820   10.5960 N   0  0  0  0  0  0  0  0  0  0  0  0
  -12.4690    4.7490   10.1080 N   0  0  0  0  0  0  0  0  0  0  0  0
  -12.0160    4.1880    8.9920 N   0  0  0  0  0  0  0  0  0  0  0  0
  -10.8400    4.7900    8.7610 N   0  0  0  0  0  0  0  0  0  0  0  0
   -9.9950    4.4790    7.6090 C   0  0  0  0  0  0  0  0  0  0  0  0
   -8.6630    5.2070    7.7200 C   0  0  0  0  0  0  0  0  0  0  0  0
  -10.7490    4.8610    6.3730 C   0  0  0  0  0  0  0  0  0  0  0  0
  -11.0350    6.2020    6.1170 C   0  0  0  0  0  0  0  0  0  0  0  0
  -11.7370    6.5580    4.9650 C   0  0  0  0  0  0  0  0  0  0  0  0
  -12.1550    5.5730    4.0710 C   0  0  0  0  0  0  0  0  0  0  0  0
  -11.8700    4.2310    4.3270 C   0  0  0  0  0  0  0  0  0  0  0  0
  -11.1660    3.8760    5.4790 C   0  0  0  0  0  0  0  0  0  0  0  0
  -12.0160    7.8660    4.7150 O   0  0  0  0  0  0  0  0  0  0  0  0
   -6.8990    7.6510    9.7710 O   0  0  0  0  0  0  0  0  0  0  0  0
   -6.7915    3.1984    5.2614 N   0  0  0  0  0  0  0  0  0  0  0  0
   -7.2871    2.4454    4.2875 N   0  0  0  0  0  0  0  0  0  0  0  0
   -8.5785    2.7962    4.1375 C   0  0  0  0  0  0  0  0  0  0  0  0
   -9.6527    2.1298    2.8614 S   0  0  0  0  0  0  0  0  0  0  0  0
  -10.3008    0.6706    3.7868 C   0  0  0  0  0  0  0  0  0  0  0  0
  -11.1335    1.1123    4.9756 C   0  0  0  0  0  0  0  0  0  0  0  0
  -10.5579    1.5810    5.9939 O   0  0  0  0  0  0  0  0  0  0  0  0
  -12.5534    0.8985    5.0270 N   0  0  0  0  0  0  0  0  0  0  0  0
  -13.4033    0.8004    3.8750 C   0  0  0  0  0  0  0  0  0  0  0  0
  -13.2653    1.6889    2.7954 C   0  0  0  0  0  0  0  0  0  0  0  0
  -14.1170    1.5925    1.6908 C   0  0  0  0  0  0  0  0  0  0  0  0
  -15.1215    0.6212    1.6637 C   0  0  0  0  0  0  0  0  0  0  0  0
  -15.2818   -0.2489    2.7462 C   0  0  0  0  0  0  0  0  0  0  0  0
  -16.2639   -1.1833    2.7247 F   0  0  0  0  0  0  0  0  0  0  0  0
  -14.4310   -0.1539    3.8524 C   0  0  0  0  0  0  0  0  0  0  0  0
   -9.1926   -0.3433    4.1964 C   0  0  0  0  0  0  0  0  0  0  0  0
   -8.3497   -0.7816    2.9868 C   0  0  0  0  0  0  0  0  0  0  0  0
   -9.8022   -1.5907    4.8604 C   0  0  0  0  0  0  0  0  0  0  0  0
   -8.9155    3.7769    4.9919 N   0  0  0  0  0  0  0  0  0  0  0  0
  -10.1064    4.5225    4.9943 N   0  0  0  0  0  0  0  0  0  0  0  0
  1  3  4  0
  1 14  4  0
  1  2  1  0
  3  4  4  0
  4  5  4  0
  5  6  4  0
  5 22  1  0
  6  7  1  0
  6 14  4  0
  7  8  1  0
  8  9  4  0
  8 12  4  0
  9 10  4  0
 10 11  4  0
 11 12  4  0
 12 13  1  0
 13 14  1  0
 13 15  1  6
 15 16  4  0
 15 20  4  0
 16 17  4  0
 17 18  4  0
 17 21  1  0
 18 19  4  0
 19 20  4  0
 23 24  4  0
 24 25  4  0
 25 26  1  0
 26 27  1  0
 27 28  1  0
 28 29  2  0
 28 30  1  0
 30 31  1  0
 31 32  4  0
 32 33  4  0
 33 34  4  0
 34 35  4  0
 35 36  1  0
 35 37  4  0
 27 38  1  0
 38 39  1  0
 38 40  1  0
 25 41  4  0
 41 42  1  0
 37 31  4  0
  2 23  4  0
  2 41  4  0
M  END
$$$$

     RDKit          3D

 37 43  0  0  0  0  0  0  0  0999 V2000
   -7.6410    4.9930    6.8080 C   0  0  0  0  0  0  0  0  0  1  0  0
   -7.7310    4.0530    5.7140 C   0  0  0  0  0  0  0  0  0  2  0  0
   -6.4520    5.6300    6.8680 N   0  0  0  0  0  0  0  0  0  0  0  0
   -6.2260    6.5240    7.8670 N   0  0  0  0  0  0  0  0  0  0  0  0
   -7.1930    6.7500    8.7820 C   0  0  0  0  0  0  0  0  0  0  0  0
   -8.4240    6.1170    8.7580 C   0  0  0  0  0  0  0  0  0  0  0  0
   -9.3950    6.3570    9.7450 N   0  0  0  0  0  0  0  0  0  0  0  0
  -10.5620    5.6840    9.7600 C   0  0  0  0  0  0  0  0  0  0  0  0
  -11.5770    5.6820   10.5960 N   0  0  0  0  0  0  0  0  0  0  0  0
  -12.4690    4.7490   10.1080 N   0  0  0  0  0  0  0  0  0  0  0  0
  -12.0160    4.1880    8.9920 N   0  0  0  0  0  0  0  0  0  0  0  0
  -10.8400    4.7900    8.7610 N   0  0  0  0  0  0  0  0  0  0  0  0
   -9.9950    4.4790    7.6090 C   0  0  0  0  0  0  0  0  0  0  0  0
   -8.6630    5.2070    7.7200 C   0  0  0  0  0  0  0  0  0  0  0  0
  -10.7490    4.8610    6.3730 C   0  0  0  0  0  0  0  0  0  0  0  0
  -11.0350    6.2020    6.1170 C   0  0  0  0  0  0  0  0  0  0  0  0
  -11.7370    6.5580    4.9650 C   0  0  0  0  0  0  0  0  0  0  0  0
  -12.1550    5.5730    4.0710 C   0  0  0  0  0  0  0  0  0  0  0  0
  -11.8700    4.2310    4.3270 C   0  0  0  0  0  0  0  0  0  0  0  0
  -11.1660    3.8760    5.4790 C   0  0  0  0  0  0  0  0  0  0  0  0
  -12.0160    7.8660    4.7150 O   0  0  0  0  0  0  0  0  0  0  0  0
   -6.8990    7.6510    9.7710 O   0  0  0  0  0  0  0  0  0  0  0  0
   -6.9567    2.8843    5.5385 C   0  0  0  0  0  0  0  0  0  0  0  0
   -7.4980    1.9562    4.2090 S   0  0  0  0  0  0  0  0  0  0  0  0
   -8.7517    3.0275    3.9173 C   0  0  0  0  0  0  0  0  0  0  0  0
   -9.6344    3.1001    2.9080 N   0  0  0  0  0  0  0  0  0  0  0  0
  -10.2699    4.2734    3.1712 C   0  0  0  0  0  0  0  0  0  1  0  0
  -11.3066    4.8158    2.2797 C   0  0  0  0  0  0  0  0  0  2  0  0
  -12.4632    5.4885    2.6583 C   0  0  0  0  0  0  0  0  0  0  0  0
  -13.2878    5.8203    1.5765 C   0  0  0  0  0  0  0  0  0  0  0  0
  -12.7960    5.3968    0.3490 C   0  0  0  0  0  0  0  0  0  0  0  0
  -11.3379    4.6030    0.6123 S   0  0  0  0  0  0  0  0  0  0  0  0
   -9.7276    4.8856    4.3145 C   0  0  0  0  0  0  0  0  0  0  0  0
   -9.8762    6.3305    4.7244 C   0  0  0  0  0  0  0  0  0  0  0  0
   -8.7291    7.1992    4.1860 C   0  0  0  0  0  0  0  0  0  0  0  0
   -8.7726    7.3162    2.7271 N   0  0  0  0  0  0  0  0  0  0  0  0
   -8.7735    4.0455    4.7582 N   0  0  0  0  0  0  0  0  0  0  0  0
  1  3  4  0
  1 14  4  0
  1  2  1  0
  3  4  4  0
  4  5  4  0
  5  6  4  0
  5 22  1  0
  6  7  1  0
  6 14  4  0
  7  8  1  0
  8  9  4  0
  8 12  4  0
  9 10  4  0
 10 11  4  0
 11 12  4  0
 12 13  1  0
 13 14  1  0
 13 15  1  6
 15 16  4  0
 15 20  4  0
 16 17  4  0
 17 18  4  0
 17 21  1  0
 18 19  4  0
 19 20  4  0
 23 24  4  0
 24 25  4  0
 25 26  4  0
 26 27  4  0
 27 28  1  0
 28 29  4  0
 29 30  4  0
 30 31  4  0
 31 32  4  0
 27 33  4  0
 33 34  1  0
 34 35  1  0
 35 36  1  0
 33 37  4  0
 37 25  4  0
 32 28  4  0
  2 23  4  0
  2 37  4  0
M  CHG  1  36   1
M  END
$$$$

     RDKit          3D

 42 48  0  0  0  0  0  0  0  0999 V2000
   -7.6410    4.9930    6.8080 C   0  0  0  0  0  0  0  0  0  1  0  0
   -7.7310    4.0530    5.7140 C   0  0  0  0  0  0  0  0  0  2  0  0
   -6.4520    5.6300    6.8680 N   0  0  0  0  0  0  0  0  0  0  0  0
   -6.2260    6.5240    7.8670 N   0  0  0  0  0  0  0  0  0  0  0  0
   -7.1930    6.7500    8.7820 C   0  0  0  0  0  0  0  0  0  0  0  0
   -8.4240    6.1170    8.7580 C   0  0  0  0  0  0  0  0  0  0  0  0
   -9.3950    6.3570    9.7450 N   0  0  0  0  0  0  0  0  0  0  0  0
  -10.5620    5.6840    9.7600 C   0  0  0  0  0  0  0  0  0  0  0  0
  -11.5770    5.6820   10.5960 N   0  0  0  0  0  0  0  0  0  0  0  0
  -12.4690    4.7490   10.1080 N   0  0  0  0  0  0  0  0  0  0  0  0
  -12.0160    4.1880    8.9920 N   0  0  0  0  0  0  0  0  0  0  0  0
  -10.8400    4.7900    8.7610 N   0  0  0  0  0  0  0  0  0  0  0  0
   -9.9950    4.4790    7.6090 C   0  0  0  0  0  0  0  0  0  0  0  0
   -8.6630    5.2070    7.7200 C   0  0  0  0  0  0  0  0  0  0  0  0
  -10.7490    4.8610    6.3730 C   0  0  0  0  0  0  0  0  0  0  0  0
  -11.0350    6.2020    6.1170 C   0  0  0  0  0  0  0  0  0  0  0  0
  -11.7370    6.5580    4.9650 C   0  0  0  0  0  0  0  0  0  0  0  0
  -12.1550    5.5730    4.0710 C   0  0  0  0  0  0  0  0  0  0  0  0
  -11.8700    4.2310    4.3270 C   0  0  0  0  0  0  0  0  0  0  0  0
  -11.1660    3.8760    5.4790 C   0  0  0  0  0  0  0  0  0  0  0  0
  -12.0160    7.8660    4.7150 O   0  0  0  0  0  0  0  0  0  0  0  0
   -6.8990    7.6510    9.7710 O   0  0  0  0  0  0  0  0  0  0  0  0
   -6.7899    3.1575    5.3137 N   0  0  0  0  0  0  0  0  0  0  0  0
   -7.3143    2.5093    4.2549 C   0  0  0  0  0  0  0  0  0  0  0  0
   -6.6867    1.5348    3.4884 C   0  0  0  0  0  0  0  0  0  0  0  0
   -7.4017    1.0149    2.3983 C   0  0  0  0  0  0  0  0  0  0  0  0
   -8.6969    1.4965    2.1182 C   0  0  0  0  0  0  0  0  0  0  0  0
   -9.6053    0.8591    0.7609 Cl  0  0  0  0  0  0  0  0  0  0  0  0
   -9.2523    2.4513    2.9167 N   0  0  0  0  0  0  0  0  0  0  0  0
   -8.5530    2.9144    3.9513 N   0  0  0  0  0  0  0  0  0  0  0  0
   -8.8856    3.8593    4.8416 C   0  0  0  0  0  0  0  0  0  0  0  0
  -10.1278    4.7028    4.7706 C   0  0  0  0  0  0  0  0  0  0  0  0
   -9.7787    6.0807    4.4317 N   0  0  0  0  0  0  0  0  0  0  0  0
   -9.5949    6.5113    3.0715 C   0  0  0  0  0  0  0  0  0  0  0  0
   -9.6665    5.6662    2.1362 O   0  0  0  0  0  0  0  0  0  0  0  0
   -9.3148    7.9351    2.7532 C   0  0  0  0  0  0  0  0  0  0  0  0
   -9.7653    8.9623    3.6104 C   0  0  0  0  0  0  0  0  0  0  0  0
   -9.5029   10.3034    3.3117 C   0  0  0  0  0  0  0  0  0  0  0  0
   -8.7973   10.6378    2.1528 C   0  0  0  0  0  0  0  0  0  0  0  0
   -8.3651    9.6330    1.2818 C   0  0  0  0  0  0  0  0  0  0  0  0
   -8.6200    8.2877    1.5746 C   0  0  0  0  0  0  0  0  0  0  0  0
   -8.1727    7.3368    0.7136 F   0  0  0  0  0  0  0  0  0  0  0  0
  1  3  4  0
  1 14  4  0
  1  2  1  0
  3  4  4  0
  4  5  4  0
  5  6  4  0
  5 22  1  0
  6  7  1  0
  6 14  4  0
  7  8  1  0
  8  9  4  0
  8 12  4  0
  9 10  4  0
 10 11  4  0
 11 12  4  0
 12 13  1  0
 13 14  1  0
 13 15  1  6
 15 16  4  0
 15 20  4  0
 16 17  4  0
 17 18  4  0
 17 21  1  0
 18 19  4  0
 19 20  4  0
 23 24  4  0
 24 25  4  0
 25 26  4  0
 26 27  4  0
 27 28  1  0
 27 29  4  0
 29 30  4  0
 30 31  4  0
 31 32  1  0
 32 33  1  0
 33 34  1  0
 34 35  2  0
 34 36  1  0
 36 37  4  0
 37 38  4  0
 38 39  4  0
 39 40  4  0
 40 41  4  0
 41 42  1  0
 41 36  4  0
 30 24  4  0
  2 23  4  0
  2 31  4  0
M  END
$$$$

     RDKit          3D

 42 48  0  0  0  0  0  0  0  0999 V2000
   -7.6410    4.9930    6.8080 C   0  0  0  0  0  0  0  0  0  1  0  0
   -7.7310    4.0530    5.7140 C   0  0  0  0  0  0  0  0  0  2  0  0
   -6.4520    5.6300    6.8680 N   0  0  0  0  0  0  0  0  0  0  0  0
   -6.2260    6.5240    7.8670 N   0  0  0  0  0  0  0  0  0  0  0  0
   -7.1930    6.7500    8.7820 C   0  0  0  0  0  0  0  0  0  0  0  0
   -8.4240    6.1170    8.7580 C   0  0  0  0  0  0  0  0  0  0  0  0
   -9.3950    6.3570    9.7450 N   0  0  0  0  0  0  0  0  0  0  0  0
  -10.5620    5.6840    9.7600 C   0  0  0  0  0  0  0  0  0  0  0  0
  -11.5770    5.6820   10.5960 N   0  0  0  0  0  0  0  0  0  0  0  0
  -12.4690    4.7490   10.1080 N   0  0  0  0  0  0  0  0  0  0  0  0
  -12.0160    4.1880    8.9920 N   0  0  0  0  0  0  0  0  0  0  0  0
  -10.8400    4.7900    8.7610 N   0  0  0  0  0  0  0  0  0  0  0  0
   -9.9950    4.4790    7.6090 C   0  0  0  0  0  0  0  0  0  0  0  0
   -8.6630    5.2070    7.7200 C   0  0  0  0  0  0  0  0  0  0  0  0
  -10.7490    4.8610    6.3730 C   0  0  0  0  0  0  0  0  0  0  0  0
  -11.0350    6.2020    6.1170 C   0  0  0  0  0  0  0  0  0  0  0  0
  -11.7370    6.5580    4.9650 C   0  0  0  0  0  0  0  0  0  0  0  0
  -12.1550    5.5730    4.0710 C   0  0  0  0  0  0  0  0  0  0  0  0
  -11.8700    4.2310    4.3270 C   0  0  0  0  0  0  0  0  0  0  0  0
  -11.1660    3.8760    5.4790 C   0  0  0  0  0  0  0  0  0  0  0  0
  -12.0160    7.8660    4.7150 O   0  0  0  0  0  0  0  0  0  0  0  0
   -6.8990    7.6510    9.7710 O   0  0  0  0  0  0  0  0  0  0  0  0
   -6.7858    3.1673    5.3026 N   0  0  0  0  0  0  0  0  0  0  0  0
   -7.3491    2.4395    4.3178 C   0  0  0  0  0  0  0  0  0  0  0  0
   -6.7408    1.4296    3.5817 C   0  0  0  0  0  0  0  0  0  0  0  0
   -7.5118    0.8018    2.5910 C   0  0  0  0  0  0  0  0  0  0  0  0
   -8.8458    1.2059    2.3819 C   0  0  0  0  0  0  0  0  0  0  0  0
   -9.8227    0.4458    1.1427 Cl  0  0  0  0  0  0  0  0  0  0  0  0
   -9.3762    2.2036    3.1436 N   0  0  0  0  0  0  0  0  0  0  0  0
   -8.6194    2.7810    4.0747 N   0  0  0  0  0  0  0  0  0  0  0  0
   -8.9241    3.7827    4.9113 C   0  0  0  0  0  0  0  0  0  0  0  0
  -10.2343    4.5213    4.9264 C   0  0  0  0  0  0  0  0  0  0  0  0
  -10.6189    4.8829    3.5626 N   0  0  0  0  0  0  0  0  0  0  0  0
  -11.7937    4.3657    2.9173 C   0  0  0  0  0  0  0  0  0  0  0  0
  -12.6881    3.7999    3.6039 O   0  0  0  0  0  0  0  0  0  0  0  0
  -11.9875    4.5101    1.4552 C   0  0  0  0  0  0  0  0  0  0  0  0
  -13.2908    4.6327    0.9385 C   0  0  0  0  0  0  0  0  0  0  0  0
  -13.5001    4.7625   -0.4373 C   0  0  0  0  0  0  0  0  0  0  0  0
  -12.4138    4.7615   -1.3138 C   0  0  0  0  0  0  0  0  0  0  0  0
  -11.1162    4.6246   -0.8168 C   0  0  0  0  0  0  0  0  0  0  0  0
  -10.8970    4.4962    0.5589 C   0  0  0  0  0  0  0  0  0  0  0  0
   -9.6268    4.3118    0.9983 F   0  0  0  0  0  0  0  0  0  0  0  0
  1  3  4  0
  1 14  4  0
  1  2  1  0
  3  4  4  0
  4  5  4  0
  5  6  4  0
  5 22  1  0
  6  7  1  0
  6 14  4  0
  7  8  1  0
  8  9  4  0
  8 12  4  0
  9 10  4  0
 10 11  4  0
 11 12  4  0
 12 13  1  0
 13 14  1  0
 13 15  1  6
 15 16  4  0
 15 20  4  0
 16 17  4  0
 17 18  4  0
 17 21  1  0
 18 19  4  0
 19 20  4  0
 23 24  4  0
 24 25  4  0
 25 26  4  0
 26 27  4  0
 27 28  1  0
 27 29  4  0
 29 30  4  0
 30 31  4  0
 31 32  1  0
 32 33  1  0
 33 34  1  0
 34 35  2  0
 34 36  1  0
 36 37  4  0
 37 38  4  0
 38 39  4  0
 39 40  4  0
 40 41  4  0
 41 42  1  0
 41 36  4  0
 30 24  4  0
  2 23  4  0
  2 31  4  0
M  END
$$$$

     RDKit          3D

 42 48  0  0  0  0  0  0  0  0999 V2000
   -7.6410    4.9930    6.8080 C   0  0  0  0  0  0  0  0  0  1  0  0
   -7.7310    4.0530    5.7140 C   0  0  0  0  0  0  0  0  0  2  0  0
   -6.4520    5.6300    6.8680 N   0  0  0  0  0  0  0  0  0  0  0  0
   -6.2260    6.5240    7.8670 N   0  0  0  0  0  0  0  0  0  0  0  0
   -7.1930    6.7500    8.7820 C   0  0  0  0  0  0  0  0  0  0  0  0
   -8.4240    6.1170    8.7580 C   0  0  0  0  0  0  0  0  0  0  0  0
   -9.3950    6.3570    9.7450 N   0  0  0  0  0  0  0  0  0  0  0  0
  -10.5620    5.6840    9.7600 C   0  0  0  0  0  0  0  0  0  0  0  0
  -11.5770    5.6820   10.5960 N   0  0  0  0  0  0  0  0  0  0  0  0
  -12.4690    4.7490   10.1080 N   0  0  0  0  0  0  0  0  0  0  0  0
  -12.0160    4.1880    8.9920 N   0  0  0  0  0  0  0  0  0  0  0  0
  -10.8400    4.7900    8.7610 N   0  0  0  0  0  0  0  0  0  0  0  0
   -9.9950    4.4790    7.6090 C   0  0  0  0  0  0  0  0  0  0  0  0
   -8.6630    5.2070    7.7200 C   0  0  0  0  0  0  0  0  0  0  0  0
  -10.7490    4.8610    6.3730 C   0  0  0  0  0  0  0  0  0  0  0  0
  -11.0350    6.2020    6.1170 C   0  0  0  0  0  0  0  0  0  0  0  0
  -11.7370    6.5580    4.9650 C   0  0  0  0  0  0  0  0  0  0  0  0
  -12.1550    5.5730    4.0710 C   0  0  0  0  0  0  0  0  0  0  0  0
  -11.8700    4.2310    4.3270 C   0  0  0  0  0  0  0  0  0  0  0  0
  -11.1660    3.8760    5.4790 C   0  0  0  0  0  0  0  0  0  0  0  0
  -12.0160    7.8660    4.7150 O   0  0  0  0  0  0  0  0  0  0  0  0
   -6.8990    7.6510    9.7710 O   0  0  0  0  0  0  0  0  0  0  0  0
   -6.8159    3.1131    5.3543 N   0  0  0  0  0  0  0  0  0  0  0  0
   -7.3533    2.4450    4.3141 C   0  0  0  0  0  0  0  0  0  0  0  0
   -6.7486    1.4336    3.5775 C   0  0  0  0  0  0  0  0  0  0  0  0
   -7.4715    0.9050    2.4969 C   0  0  0  0  0  0  0  0  0  0  0  0
   -8.7518    1.4117    2.1960 C   0  0  0  0  0  0  0  0  0  0  0  0
   -9.6627    0.7766    0.8413 Cl  0  0  0  0  0  0  0  0  0  0  0  0
   -9.2810    2.4084    2.9611 N   0  0  0  0  0  0  0  0  0  0  0  0
   -8.5769    2.8773    3.9896 N   0  0  0  0  0  0  0  0  0  0  0  0
   -8.8850    3.8639    4.8413 C   0  0  0  0  0  0  0  0  0  0  0  0
  -10.0785    4.7666    4.6894 C   0  0  0  0  0  0  0  0  0  0  0  0
   -9.9139    5.6373    3.5265 N   0  0  0  0  0  0  0  0  0  0  0  0
  -10.9563    6.5324    3.1106 C   0  0  0  0  0  0  0  0  0  0  0  0
  -11.9607    6.7053    3.8540 O   0  0  0  0  0  0  0  0  0  0  0  0
  -10.8669    7.2559    1.8192 C   0  0  0  0  0  0  0  0  0  0  0  0
  -10.1632    6.6943    0.7365 C   0  0  0  0  0  0  0  0  0  0  0  0
  -10.0874    7.3676   -0.4860 C   0  0  0  0  0  0  0  0  0  0  0  0
  -10.7147    8.6042   -0.6452 C   0  0  0  0  0  0  0  0  0  0  0  0
  -11.4224    9.1695    0.4170 C   0  0  0  0  0  0  0  0  0  0  0  0
  -11.5041    8.5023    1.6440 C   0  0  0  0  0  0  0  0  0  0  0  0
  -12.1855    9.0868    2.6620 F   0  0  0  0  0  0  0  0  0  0  0  0
  1  3  4  0
  1 14  4  0
  1  2  1  0
  3  4  4  0
  4  5  4  0
  5  6  4  0
  5 22  1  0
  6  7  1  0
  6 14  4  0
  7  8  1  0
  8  9  4  0
  8 12  4  0
  9 10  4  0
 10 11  4  0
 11 12  4  0
 12 13  1  0
 13 14  1  0
 13 15  1  6
 15 16  4  0
 15 20  4  0
 16 17  4  0
 17 18  4  0
 17 21  1  0
 18 19  4  0
 19 20  4  0
 23 24  4  0
 24 25  4  0
 25 26  4  0
 26 27  4  0
 27 28  1  0
 27 29  4  0
 29 30  4  0
 30 31  4  0
 31 32  1  0
 32 33  1  0
 33 34  1  0
 34 35  2  0
 34 36  1  0
 36 37  4  0
 37 38  4  0
 38 39  4  0
 39 40  4  0
 40 41  4  0
 41 42  1  0
 41 36  4  0
 30 24  4  0
  2 23  4  0
  2 31  4  0
M  END
$$$$

     RDKit          3D

 42 48  0  0  0  0  0  0  0  0999 V2000
   -7.6410    4.9930    6.8080 C   0  0  0  0  0  0  0  0  0  1  0  0
   -7.7310    4.0530    5.7140 C   0  0  0  0  0  0  0  0  0  2  0  0
   -6.4520    5.6300    6.8680 N   0  0  0  0  0  0  0  0  0  0  0  0
   -6.2260    6.5240    7.8670 N   0  0  0  0  0  0  0  0  0  0  0  0
   -7.1930    6.7500    8.7820 C   0  0  0  0  0  0  0  0  0  0  0  0
   -8.4240    6.1170    8.7580 C   0  0  0  0  0  0  0  0  0  0  0  0
   -9.3950    6.3570    9.7450 N   0  0  0  0  0  0  0  0  0  0  0  0
  -10.5620    5.6840    9.7600 C   0  0  0  0  0  0  0  0  0  0  0  0
  -11.5770    5.6820   10.5960 N   0  0  0  0  0  0  0  0  0  0  0  0
  -12.4690    4.7490   10.1080 N   0  0  0  0  0  0  0  0  0  0  0  0
  -12.0160    4.1880    8.9920 N   0  0  0  0  0  0  0  0  0  0  0  0
  -10.8400    4.7900    8.7610 N   0  0  0  0  0  0  0  0  0  0  0  0
   -9.9950    4.4790    7.6090 C   0  0  0  0  0  0  0  0  0  0  0  0
   -8.6630    5.2070    7.7200 C   0  0  0  0  0  0  0  0  0  0  0  0
  -10.7490    4.8610    6.3730 C   0  0  0  0  0  0  0  0  0  0  0  0
  -11.0350    6.2020    6.1170 C   0  0  0  0  0  0  0  0  0  0  0  0
  -11.7370    6.5580    4.9650 C   0  0  0  0  0  0  0  0  0  0  0  0
  -12.1550    5.5730    4.0710 C   0  0  0  0  0  0  0  0  0  0  0  0
  -11.8700    4.2310    4.3270 C   0  0  0  0  0  0  0  0  0  0  0  0
  -11.1660    3.8760    5.4790 C   0  0  0  0  0  0  0  0  0  0  0  0
  -12.0160    7.8660    4.7150 O   0  0  0  0  0  0  0  0  0  0  0  0
   -6.8990    7.6510    9.7710 O   0  0  0  0  0  0  0  0  0  0  0  0
   -6.9114    2.9259    5.5252 C   0  0  0  0  0  0  0  0  0  0  0  0
   -7.4180    1.9835    4.2165 S   0  0  0  0  0  0  0  0  0  0  0  0
   -8.7343    2.9513    3.8517 C   0  0  0  0  0  0  0  0  0  0  0  0
   -9.6027    2.7778    2.8319 N   0  0  0  0  0  0  0  0  0  0  0  0
  -10.5999    3.6863    2.6504 C   0  0  0  0  0  0  0  0  0  0  0  0
  -10.7233    4.7736    3.4830 N   0  0  0  0  0  0  0  0  0  0  0  0
  -11.7852    5.7577    3.2219 C   0  0  0  0  0  0  0  0  0  0  0  0
  -11.2252    6.9363    2.4908 C   0  0  0  0  0  0  0  0  0  0  0  0
  -11.3702    8.0956    2.9652 O   0  0  0  0  0  0  0  0  0  0  0  0
  -10.5345    6.7335    1.2914 O   0  0  0  0  0  0  0  0  0  0  0  0
   -9.9951    7.7944    0.5035 C   0  0  0  0  0  0  0  0  0  0  0  0
  -11.1197    8.4891   -0.2851 C   0  0  0  0  0  0  0  0  0  0  0  0
  -10.5570    9.5761   -1.2098 C   0  0  0  0  0  0  0  0  0  0  0  0
   -9.5041    8.9930   -2.1718 C   0  0  0  0  0  0  0  0  0  0  0  0
   -8.9294   10.0934   -3.0707 C   0  0  0  0  0  0  0  0  0  0  0  0
   -8.3794    8.2966   -1.3811 C   0  0  0  0  0  0  0  0  0  0  0  0
   -8.9465    7.2124   -0.4555 C   0  0  0  0  0  0  0  0  0  0  0  0
   -9.8282    4.9655    4.5113 C   0  0  0  0  0  0  0  0  0  0  0  0
   -9.9032    5.9937    5.2386 O   0  0  0  0  0  0  0  0  0  0  0  0
   -8.8153    4.0178    4.7216 C   0  0  0  0  0  0  0  0  0  0  0  0
  1  3  4  0
  1 14  4  0
  1  2  1  0
  3  4  4  0
  4  5  4  0
  5  6  4  0
  5 22  1  0
  6  7  1  0
  6 14  4  0
  7  8  1  0
  8  9  4  0
  8 12  4  0
  9 10  4  0
 10 11  4  0
 11 12  4  0
 12 13  1  0
 13 14  1  0
 13 15  1  6
 15 16  4  0
 15 20  4  0
 16 17  4  0
 17 18  4  0
 17 21  1  0
 18 19  4  0
 19 20  4  0
 23 24  4  0
 24 25  4  0
 25 26  4  0
 26 27  4  0
 27 28  4  0
 28 29  1  0
 29 30  1  0
 30 31  2  0
 30 32  1  0
 32 33  1  0
 33 34  1  0
 34 35  1  0
 35 36  1  0
 36 37  1  0
 36 38  1  0
 38 39  1  0
 28 40  4  0
 40 41  2  0
 40 42  4  0
 42 25  4  0
 39 33  1  0
  2 23  4  0
  2 42  4  0
M  END
$$$$

     RDKit          3D

 42 48  0  0  0  0  0  0  0  0999 V2000
   -7.6410    4.9930    6.8080 C   0  0  0  0  0  0  0  0  0  1  0  0
   -7.7310    4.0530    5.7140 C   0  0  0  0  0  0  0  0  0  2  0  0
   -6.4520    5.6300    6.8680 N   0  0  0  0  0  0  0  0  0  0  0  0
   -6.2260    6.5240    7.8670 N   0  0  0  0  0  0  0  0  0  0  0  0
   -7.1930    6.7500    8.7820 C   0  0  0  0  0  0  0  0  0  0  0  0
   -8.4240    6.1170    8.7580 C   0  0  0  0  0  0  0  0  0  0  0  0
   -9.3950    6.3570    9.7450 N   0  0  0  0  0  0  0  0  0  0  0  0
  -10.5620    5.6840    9.7600 C   0  0  0  0  0  0  0  0  0  0  0  0
  -11.5770    5.6820   10.5960 N   0  0  0  0  0  0  0  0  0  0  0  0
  -12.4690    4.7490   10.1080 N   0  0  0  0  0  0  0  0  0  0  0  0
  -12.0160    4.1880    8.9920 N   0  0  0  0  0  0  0  0  0  0  0  0
  -10.8400    4.7900    8.7610 N   0  0  0  0  0  0  0  0  0  0  0  0
   -9.9950    4.4790    7.6090 C   0  0  0  0  0  0  0  0  0  0  0  0
   -8.6630    5.2070    7.7200 C   0  0  0  0  0  0  0  0  0  0  0  0
  -10.7490    4.8610    6.3730 C   0  0  0  0  0  0  0  0  0  0  0  0
  -11.0350    6.2020    6.1170 C   0  0  0  0  0  0  0  0  0  0  0  0
  -11.7370    6.5580    4.9650 C   0  0  0  0  0  0  0  0  0  0  0  0
  -12.1550    5.5730    4.0710 C   0  0  0  0  0  0  0  0  0  0  0  0
  -11.8700    4.2310    4.3270 C   0  0  0  0  0  0  0  0  0  0  0  0
  -11.1660    3.8760    5.4790 C   0  0  0  0  0  0  0  0  0  0  0  0
  -12.0160    7.8660    4.7150 O   0  0  0  0  0  0  0  0  0  0  0  0
   -6.8990    7.6510    9.7710 O   0  0  0  0  0  0  0  0  0  0  0  0
   -6.8966    2.9400    5.5105 C   0  0  0  0  0  0  0  0  0  0  0  0
   -7.4107    1.9864    4.2135 S   0  0  0  0  0  0  0  0  0  0  0  0
   -8.7504    2.9301    3.8720 C   0  0  0  0  0  0  0  0  0  0  0  0
   -9.6391    2.7346    2.8736 N   0  0  0  0  0  0  0  0  0  0  0  0
  -10.6593    3.6201    2.7133 C   0  0  0  0  0  0  0  0  0  0  0  0
  -10.7852    4.7079    3.5438 N   0  0  0  0  0  0  0  0  0  0  0  0
  -11.8810    5.6629    3.3052 C   0  0  0  0  0  0  0  0  0  0  0  0
  -11.4418    6.7995    2.4298 C   0  0  0  0  0  0  0  0  0  0  0  0
  -10.2580    6.8511    1.9970 O   0  0  0  0  0  0  0  0  0  0  0  0
  -12.3747    7.7963    2.1096 O   0  0  0  0  0  0  0  0  0  0  0  0
  -12.1259    8.9528    1.3018 C   0  0  0  0  0  0  0  0  0  0  0  0
  -11.7467    8.5725   -0.1413 C   0  0  0  0  0  0  0  0  0  0  0  0
  -11.5364    9.8299   -0.9947 C   0  0  0  0  0  0  0  0  0  0  0  0
  -10.4747   10.7561   -0.3670 C   0  0  0  0  0  0  0  0  0  0  0  0
  -10.2937   12.0185   -1.2171 C   0  0  0  0  0  0  0  0  0  0  0  0
  -10.8625   11.1295    1.0778 C   0  0  0  0  0  0  0  0  0  0  0  0
  -11.0690    9.8751    1.9361 C   0  0  0  0  0  0  0  0  0  0  0  0
   -9.8673    4.9262    4.5463 C   0  0  0  0  0  0  0  0  0  0  0  0
   -9.9411    5.9607    5.2645 O   0  0  0  0  0  0  0  0  0  0  0  0
   -8.8331    3.9981    4.7399 C   0  0  0  0  0  0  0  0  0  0  0  0
  1  3  4  0
  1 14  4  0
  1  2  1  0
  3  4  4  0
  4  5  4  0
  5  6  4  0
  5 22  1  0
  6  7  1  0
  6 14  4  0
  7  8  1  0
  8  9  4  0
  8 12  4  0
  9 10  4  0
 10 11  4  0
 11 12  4  0
 12 13  1  0
 13 14  1  0
 13 15  1  6
 15 16  4  0
 15 20  4  0
 16 17  4  0
 17 18  4  0
 17 21  1  0
 18 19  4  0
 19 20  4  0
 23 24  4  0
 24 25  4  0
 25 26  4  0
 26 27  4  0
 27 28  4  0
 28 29  1  0
 29 30  1  0
 30 31  2  0
 30 32  1  0
 32 33  1  0
 33 34  1  0
 34 35  1  0
 35 36  1  0
 36 37  1  0
 36 38  1  0
 38 39  1  0
 28 40  4  0
 40 41  2  0
 40 42  4  0
 42 25  4  0
 39 33  1  0
  2 23  4  0
  2 42  4  0
M  END
$$$$

     RDKit          3D

 49 55  0  0  0  0  0  0  0  0999 V2000
   -7.6410    4.9930    6.8080 C   0  0  0  0  0  0  0  0  0  1  0  0
   -7.7310    4.0530    5.7140 C   0  0  0  0  0  0  0  0  0  2  0  0
   -6.4520    5.6300    6.8680 N   0  0  0  0  0  0  0  0  0  0  0  0
   -6.2260    6.5240    7.8670 N   0  0  0  0  0  0  0  0  0  0  0  0
   -7.1930    6.7500    8.7820 C   0  0  0  0  0  0  0  0  0  0  0  0
   -8.4240    6.1170    8.7580 C   0  0  0  0  0  0  0  0  0  0  0  0
   -9.3950    6.3570    9.7450 N   0  0  0  0  0  0  0  0  0  0  0  0
  -10.5620    5.6840    9.7600 C   0  0  0  0  0  0  0  0  0  0  0  0
  -11.5770    5.6820   10.5960 N   0  0  0  0  0  0  0  0  0  0  0  0
  -12.4690    4.7490   10.1080 N   0  0  0  0  0  0  0  0  0  0  0  0
  -12.0160    4.1880    8.9920 N   0  0  0  0  0  0  0  0  0  0  0  0
  -10.8400    4.7900    8.7610 N   0  0  0  0  0  0  0  0  0  0  0  0
   -9.9950    4.4790    7.6090 C   0  0  0  0  0  0  0  0  0  0  0  0
   -8.6630    5.2070    7.7200 C   0  0  0  0  0  0  0  0  0  0  0  0
  -10.7490    4.8610    6.3730 C   0  0  0  0  0  0  0  0  0  0  0  0
  -11.0350    6.2020    6.1170 C   0  0  0  0  0  0  0  0  0  0  0  0
  -11.7370    6.5580    4.9650 C   0  0  0  0  0  0  0  0  0  0  0  0
  -12.1550    5.5730    4.0710 C   0  0  0  0  0  0  0  0  0  0  0  0
  -11.8700    4.2310    4.3270 C   0  0  0  0  0  0  0  0  0  0  0  0
  -11.1660    3.8760    5.4790 C   0  0  0  0  0  0  0  0  0  0  0  0
  -12.0160    7.8660    4.7150 O   0  0  0  0  0  0  0  0  0  0  0  0
   -6.8990    7.6510    9.7710 O   0  0  0  0  0  0  0  0  0  0  0  0
   -6.7890    3.1713    5.3211 N   0  0  0  0  0  0  0  0  0  0  0  0
   -7.2171    2.4889    4.2742 N   0  0  0  0  0  0  0  0  0  0  0  0
   -8.4632    2.9227    4.0097 C   0  0  0  0  0  0  0  0  0  0  0  0
   -9.4355    2.3019    2.6338 S   0  0  0  0  0  0  0  0  0  0  0  0
  -10.3084    1.0136    3.6071 C   0  0  0  0  0  0  0  0  0  0  0  0
   -9.3758   -0.1584    3.9293 C   0  0  0  0  0  0  0  0  0  0  0  0
  -11.4904    0.5103    2.8259 C   0  0  0  0  0  0  0  0  0  0  0  0
  -11.3407    0.1688    1.6208 O   0  0  0  0  0  0  0  0  0  0  0  0
  -12.7836    0.4151    3.4480 N   0  0  0  0  0  0  0  0  0  0  0  0
  -13.8540   -0.4192    2.9682 C   0  0  0  0  0  0  0  0  0  0  0  0
  -15.1792   -0.0798    3.2741 C   0  0  0  0  0  0  0  0  0  0  0  0
  -16.2362   -0.8968    2.8685 C   0  0  0  0  0  0  0  0  0  0  0  0
  -15.9864   -2.0843    2.1585 C   0  0  0  0  0  0  0  0  0  0  0  0
  -17.0807   -2.9306    1.7403 N   0  0  0  0  0  0  0  0  0  0  0  0
  -18.3392   -2.3231    1.2761 C   0  0  0  0  0  0  0  0  0  0  0  0
  -19.1204   -3.2872    0.3782 C   0  0  0  0  0  0  0  0  0  0  0  0
  -19.3912   -4.6297    1.0739 C   0  0  0  0  0  0  0  0  0  0  0  0
  -18.2549   -5.0856    2.0112 C   0  0  0  0  0  0  0  0  0  0  0  0
  -16.9202   -4.3939    1.7021 C   0  0  0  0  0  0  0  0  0  0  0  0
  -14.6564   -2.4325    1.8640 C   0  0  0  0  0  0  0  0  0  0  0  0
  -13.6006   -1.6136    2.2708 C   0  0  0  0  0  0  0  0  0  0  0  0
   -8.8606    3.8739    4.8797 N   0  0  0  0  0  0  0  0  0  0  0  0
  -10.0548    4.7228    4.7815 C   0  0  0  0  0  0  0  0  0  0  0  0
   -9.7344    6.0369    4.0563 C   0  0  0  0  0  0  0  0  0  0  0  0
   -9.6628    5.8485    2.5729 C   0  0  0  0  0  0  0  0  0  0  0  0
  -10.6966    5.5286    1.9289 O   0  0  0  0  0  0  0  0  0  0  0  0
   -8.4632    6.0445    1.9010 O   0  0  0  0  0  0  0  0  0  0  0  0
  1  3  4  0
  1 14  4  0
  1  2  1  0
  3  4  4  0
  4  5  4  0
  5  6  4  0
  5 22  1  0
  6  7  1  0
  6 14  4  0
  7  8  1  0
  8  9  4  0
  8 12  4  0
  9 10  4  0
 10 11  4  0
 11 12  4  0
 12 13  1  0
 13 14  1  0
 13 15  1  6
 15 16  4  0
 15 20  4  0
 16 17  4  0
 17 18  4  0
 17 21  1  0
 18 19  4  0
 19 20  4  0
 23 24  4  0
 24 25  4  0
 25 26  1  0
 26 27  1  0
 27 28  1  0
 27 29  1  0
 29 30  2  0
 29 31  1  0
 31 32  1  0
 32 33  4  0
 33 34  4  0
 34 35  4  0
 35 36  1  0
 36 37  1  0
 37 38  1  0
 38 39  1  0
 39 40  1  0
 40 41  1  0
 35 42  4  0
 42 43  4  0
 25 44  4  0
 44 45  1  0
 45 46  1  0
 46 47  1  0
 47 48  2  0
 47 49  1  0
 43 32  4  0
 41 36  1  0
  2 23  4  0
  2 44  4  0
M  CHG  1  49  -1
M  END
$$$$

     RDKit          3D

 49 55  0  0  0  0  0  0  0  0999 V2000
   -7.6410    4.9930    6.8080 C   0  0  0  0  0  0  0  0  0  1  0  0
   -7.7310    4.0530    5.7140 C   0  0  0  0  0  0  0  0  0  2  0  0
   -6.4520    5.6300    6.8680 N   0  0  0  0  0  0  0  0  0  0  0  0
   -6.2260    6.5240    7.8670 N   0  0  0  0  0  0  0  0  0  0  0  0
   -7.1930    6.7500    8.7820 C   0  0  0  0  0  0  0  0  0  0  0  0
   -8.4240    6.1170    8.7580 C   0  0  0  0  0  0  0  0  0  0  0  0
   -9.3950    6.3570    9.7450 N   0  0  0  0  0  0  0  0  0  0  0  0
  -10.5620    5.6840    9.7600 C   0  0  0  0  0  0  0  0  0  0  0  0
  -11.5770    5.6820   10.5960 N   0  0  0  0  0  0  0  0  0  0  0  0
  -12.4690    4.7490   10.1080 N   0  0  0  0  0  0  0  0  0  0  0  0
  -12.0160    4.1880    8.9920 N   0  0  0  0  0  0  0  0  0  0  0  0
  -10.8400    4.7900    8.7610 N   0  0  0  0  0  0  0  0  0  0  0  0
   -9.9950    4.4790    7.6090 C   0  0  0  0  0  0  0  0  0  0  0  0
   -8.6630    5.2070    7.7200 C   0  0  0  0  0  0  0  0  0  0  0  0
  -10.7490    4.8610    6.3730 C   0  0  0  0  0  0  0  0  0  0  0  0
  -11.0350    6.2020    6.1170 C   0  0  0  0  0  0  0  0  0  0  0  0
  -11.7370    6.5580    4.9650 C   0  0  0  0  0  0  0  0  0  0  0  0
  -12.1550    5.5730    4.0710 C   0  0  0  0  0  0  0  0  0  0  0  0
  -11.8700    4.2310    4.3270 C   0  0  0  0  0  0  0  0  0  0  0  0
  -11.1660    3.8760    5.4790 C   0  0  0  0  0  0  0  0  0  0  0  0
  -12.0160    7.8660    4.7150 O   0  0  0  0  0  0  0  0  0  0  0  0
   -6.8990    7.6510    9.7710 O   0  0  0  0  0  0  0  0  0  0  0  0
   -6.8725    3.0486    5.4296 N   0  0  0  0  0  0  0  0  0  0  0  0
   -7.3286    2.3418    4.4064 N   0  0  0  0  0  0  0  0  0  0  0  0
   -8.5041    2.8875    4.0472 C   0  0  0  0  0  0  0  0  0  0  0  0
   -9.5240    2.2328    2.7196 S   0  0  0  0  0  0  0  0  0  0  0  0
   -8.6394    3.1034    1.3644 C   0  0  0  0  0  0  0  0  0  0  0  0
   -9.6614    3.8071    0.4747 C   0  0  0  0  0  0  0  0  0  0  0  0
   -7.8171    2.1449    0.5417 C   0  0  0  0  0  0  0  0  0  0  0  0
   -7.9793    0.8985    0.6638 O   0  0  0  0  0  0  0  0  0  0  0  0
   -6.8331    2.6565   -0.3715 N   0  0  0  0  0  0  0  0  0  0  0  0
   -6.2221    1.8631   -1.4026 C   0  0  0  0  0  0  0  0  0  0  0  0
   -4.8770    2.0745   -1.7329 C   0  0  0  0  0  0  0  0  0  0  0  0
   -4.2673    1.3163   -2.7364 C   0  0  0  0  0  0  0  0  0  0  0  0
   -5.0003    0.3487   -3.4451 C   0  0  0  0  0  0  0  0  0  0  0  0
   -4.3724   -0.4351   -4.4810 N   0  0  0  0  0  0  0  0  0  0  0  0
   -5.0310   -0.5535   -5.7924 C   0  0  0  0  0  0  0  0  0  0  0  0
   -4.1362   -1.2640   -6.8135 C   0  0  0  0  0  0  0  0  0  0  0  0
   -3.5863   -2.5630   -6.2174 C   0  0  0  0  0  0  0  0  0  0  0  0
   -2.8362   -2.3442   -4.8851 C   0  0  0  0  0  0  0  0  0  0  0  0
   -2.9994   -0.9317   -4.2996 C   0  0  0  0  0  0  0  0  0  0  0  0
   -6.3579    0.1633   -3.1349 C   0  0  0  0  0  0  0  0  0  0  0  0
   -6.9638    0.9159   -2.1253 C   0  0  0  0  0  0  0  0  0  0  0  0
   -8.8213    3.9478    4.8212 N   0  0  0  0  0  0  0  0  0  0  0  0
  -10.0027    4.8159    4.7115 C   0  0  0  0  0  0  0  0  0  0  0  0
   -9.6340    6.2832    4.4461 C   0  0  0  0  0  0  0  0  0  0  0  0
   -8.8453    6.4530    3.1840 C   0  0  0  0  0  0  0  0  0  0  0  0
   -7.6293    6.1254    3.1454 O   0  0  0  0  0  0  0  0  0  0  0  0
   -9.4436    7.0092    2.0618 O   0  0  0  0  0  0  0  0  0  0  0  0
  1  3  4  0
  1 14  4  0
  1  2  1  0
  3  4  4  0
  4  5  4  0
  5  6  4  0
  5 22  1  0
  6  7  1  0
  6 14  4  0
  7  8  1  0
  8  9  4  0
  8 12  4  0
  9 10  4  0
 10 11  4  0
 11 12  4  0
 12 13  1  0
 13 14  1  0
 13 15  1  6
 15 16  4  0
 15 20  4  0
 16 17  4  0
 17 18  4  0
 17 21  1  0
 18 19  4  0
 19 20  4  0
 23 24  4  0
 24 25  4  0
 25 26  1  0
 26 27  1  0
 27 28  1  0
 27 29  1  0
 29 30  2  0
 29 31  1  0
 31 32  1  0
 32 33  4  0
 33 34  4  0
 34 35  4  0
 35 36  1  0
 36 37  1  0
 37 38  1  0
 38 39  1  0
 39 40  1  0
 40 41  1  0
 35 42  4  0
 42 43  4  0
 25 44  4  0
 44 45  1  0
 45 46  1  0
 46 47  1  0
 47 48  2  0
 47 49  1  0
 43 32  4  0
 41 36  1  0
  2 23  4  0
  2 44  4  0
M  CHG  1  49  -1
M  END
$$$$

     RDKit          3D

 36 41  0  0  0  0  0  0  0  0999 V2000
   -7.6410    4.9930    6.8080 C   0  0  0  0  0  0  0  0  0  1  0  0
   -7.7310    4.0530    5.7140 C   0  0  0  0  0  0  0  0  0  2  0  0
   -6.4520    5.6300    6.8680 N   0  0  0  0  0  0  0  0  0  0  0  0
   -6.2260    6.5240    7.8670 N   0  0  0  0  0  0  0  0  0  0  0  0
   -7.1930    6.7500    8.7820 C   0  0  0  0  0  0  0  0  0  0  0  0
   -8.4240    6.1170    8.7580 C   0  0  0  0  0  0  0  0  0  0  0  0
   -9.3950    6.3570    9.7450 N   0  0  0  0  0  0  0  0  0  0  0  0
  -10.5620    5.6840    9.7600 C   0  0  0  0  0  0  0  0  0  0  0  0
  -11.5770    5.6820   10.5960 N   0  0  0  0  0  0  0  0  0  0  0  0
  -12.4690    4.7490   10.1080 N   0  0  0  0  0  0  0  0  0  0  0  0
  -12.0160    4.1880    8.9920 N   0  0  0  0  0  0  0  0  0  0  0  0
  -10.8400    4.7900    8.7610 N   0  0  0  0  0  0  0  0  0  0  0  0
   -9.9950    4.4790    7.6090 C   0  0  0  0  0  0  0  0  0  0  0  0
   -8.6630    5.2070    7.7200 C   0  0  0  0  0  0  0  0  0  0  0  0
  -10.7490    4.8610    6.3730 C   0  0  0  0  0  0  0  0  0  0  0  0
  -11.0350    6.2020    6.1170 C   0  0  0  0  0  0  0  0  0  0  0  0
  -11.7370    6.5580    4.9650 C   0  0  0  0  0  0  0  0  0  0  0  0
  -12.1550    5.5730    4.0710 C   0  0  0  0  0  0  0  0  0  0  0  0
  -11.8700    4.2310    4.3270 C   0  0  0  0  0  0  0  0  0  0  0  0
  -11.1660    3.8760    5.4790 C   0  0  0  0  0  0  0  0  0  0  0  0
  -12.0160    7.8660    4.7150 O   0  0  0  0  0  0  0  0  0  0  0  0
   -6.8990    7.6510    9.7710 O   0  0  0  0  0  0  0  0  0  0  0  0
   -6.7879    3.1230    5.3996 N   0  0  0  0  0  0  0  0  0  0  0  0
   -7.1233    2.2849    4.3953 C   0  0  0  0  0  0  0  0  0  0  0  0
   -6.2720    1.2469    3.8907 N   0  0  0  0  0  0  0  0  0  0  0  0
   -4.9441    0.9908    4.3924 C   0  0  0  0  0  0  0  0  0  0  0  0
   -4.4736    1.7075    5.3158 O   0  0  0  0  0  0  0  0  0  0  0  0
   -4.0635   -0.1161    3.8574 C   0  0  0  0  0  0  0  0  0  0  0  0
   -4.7555   -1.3920    3.4017 C   0  0  0  0  0  0  0  0  0  0  0  0
   -4.1733   -0.4300    2.3729 C   0  0  0  0  0  0  0  0  0  0  0  0
   -8.6657    2.5979    3.8137 S   0  0  0  0  0  0  0  0  0  0  0  0
   -8.9226    3.8875    4.8730 C   0  0  0  0  0  0  0  0  0  0  0  0
  -10.1758    4.7210    4.9326 C   0  0  0  0  0  0  0  0  0  0  0  0
  -10.7277    4.9886    3.5663 C   0  0  0  0  0  0  0  0  0  0  0  0
  -10.5490    6.1081    3.0182 O   0  0  0  0  0  0  0  0  0  0  0  0
  -11.4442    4.0033    2.8982 O   0  0  0  0  0  0  0  0  0  0  0  0
  1  3  4  0
  1 14  4  0
  1  2  1  0
  3  4  4  0
  4  5  4  0
  5  6  4  0
  5 22  1  0
  6  7  1  0
  6 14  4  0
  7  8  1  0
  8  9  4  0
  8 12  4  0
  9 10  4  0
 10 11  4  0
 11 12  4  0
 12 13  1  0
 13 14  1  0
 13 15  1  6
 15 16  4  0
 15 20  4  0
 16 17  4  0
 17 18  4  0
 17 21  1  0
 18 19  4  0
 19 20  4  0
 23 24  4  0
 24 25  1  0
 25 26  1  0
 26 27  2  0
 26 28  1  0
 28 29  1  0
 29 30  1  0
 24 31  4  0
 31 32  4  0
 32 33  1  0
 33 34  1  0
 34 35  2  0
 34 36  1  0
 30 28  1  0
  2 23  4  0
  2 32  4  0
M  CHG  1  36  -1
M  END
$$$$

     RDKit          3D

 32 37  0  0  0  0  0  0  0  0999 V2000
   -7.6410    4.9930    6.8080 C   0  0  0  0  0  0  0  0  0  1  0  0
   -7.7310    4.0530    5.7140 C   0  0  0  0  0  0  0  0  0  2  0  0
   -6.4520    5.6300    6.8680 N   0  0  0  0  0  0  0  0  0  0  0  0
   -6.2260    6.5240    7.8670 N   0  0  0  0  0  0  0  0  0  0  0  0
   -7.1930    6.7500    8.7820 C   0  0  0  0  0  0  0  0  0  0  0  0
   -8.4240    6.1170    8.7580 C   0  0  0  0  0  0  0  0  0  0  0  0
   -9.3950    6.3570    9.7450 N   0  0  0  0  0  0  0  0  0  0  0  0
  -10.5620    5.6840    9.7600 C   0  0  0  0  0  0  0  0  0  0  0  0
  -11.5770    5.6820   10.5960 N   0  0  0  0  0  0  0  0  0  0  0  0
  -12.4690    4.7490   10.1080 N   0  0  0  0  0  0  0  0  0  0  0  0
  -12.0160    4.1880    8.9920 N   0  0  0  0  0  0  0  0  0  0  0  0
  -10.8400    4.7900    8.7610 N   0  0  0  0  0  0  0  0  0  0  0  0
   -9.9950    4.4790    7.6090 C   0  0  0  0  0  0  0  0  0  0  0  0
   -8.6630    5.2070    7.7200 C   0  0  0  0  0  0  0  0  0  0  0  0
  -10.7490    4.8610    6.3730 C   0  0  0  0  0  0  0  0  0  0  0  0
  -11.0350    6.2020    6.1170 C   0  0  0  0  0  0  0  0  0  0  0  0
  -11.7370    6.5580    4.9650 C   0  0  0  0  0  0  0  0  0  0  0  0
  -12.1550    5.5730    4.0710 C   0  0  0  0  0  0  0  0  0  0  0  0
  -11.8700    4.2310    4.3270 C   0  0  0  0  0  0  0  0  0  0  0  0
  -11.1660    3.8760    5.4790 C   0  0  0  0  0  0  0  0  0  0  0  0
  -12.0160    7.8660    4.7150 O   0  0  0  0  0  0  0  0  0  0  0  0
   -6.8990    7.6510    9.7710 O   0  0  0  0  0  0  0  0  0  0  0  0
   -6.8549    3.0855    5.3712 N   0  0  0  0  0  0  0  0  0  0  0  0
   -7.3369    2.4611    4.3051 N   0  0  0  0  0  0  0  0  0  0  0  0
   -8.5060    2.9821    3.9640 N   0  0  0  0  0  0  0  0  0  0  0  0
   -8.8109    3.9439    4.8169 N   0  0  0  0  0  0  0  0  0  0  0  0
   -9.9506    4.8481    4.6537 C   0  0  0  0  0  0  0  0  0  0  0  0
   -9.4929    6.2204    4.1280 C   0  0  0  0  0  0  0  0  0  0  0  0
   -8.8462    6.1489    2.7492 C   0  0  0  0  0  0  0  0  0  0  0  0
   -9.0733    7.5180    2.1171 C   0  0  0  0  0  0  0  0  0  0  0  0
  -10.1869    8.1967    2.9148 C   0  0  0  0  0  0  0  0  0  0  0  0
  -10.6537    7.1907    3.9581 C   0  0  0  0  0  0  0  0  0  0  0  0
  1  3  4  0
  1 14  4  0
  1  2  1  0
  3  4  4  0
  4  5  4  0
  5  6  4  0
  5 22  1  0
  6  7  1  0
  6 14  4  0
  7  8  1  0
  8  9  4  0
  8 12  4  0
  9 10  4  0
 10 11  4  0
 11 12  4  0
 12 13  1  0
 13 14  1  0
 13 15  1  6
 15 16  4  0
 15 20  4  0
 16 17  4  0
 17 18  4  0
 17 21  1  0
 18 19  4  0
 19 20  4  0
 23 24  4  0
 24 25  4  0
 25 26  4  0
 26 27  1  0
 27 28  1  0
 28 29  1  0
 29 30  1  0
 30 31  1  0
 31 32  1  0
 32 28  1  0
  2 23  4  0
  2 26  4  0
M  END
$$$$

     RDKit          3D

 32 37  0  0  0  0  0  0  0  0999 V2000
   -7.6410    4.9930    6.8080 C   0  0  0  0  0  0  0  0  0  1  0  0
   -7.7310    4.0530    5.7140 C   0  0  0  0  0  0  0  0  0  2  0  0
   -6.4520    5.6300    6.8680 N   0  0  0  0  0  0  0  0  0  0  0  0
   -6.2260    6.5240    7.8670 N   0  0  0  0  0  0  0  0  0  0  0  0
   -7.1930    6.7500    8.7820 C   0  0  0  0  0  0  0  0  0  0  0  0
   -8.4240    6.1170    8.7580 C   0  0  0  0  0  0  0  0  0  0  0  0
   -9.3950    6.3570    9.7450 N   0  0  0  0  0  0  0  0  0  0  0  0
  -10.5620    5.6840    9.7600 C   0  0  0  0  0  0  0  0  0  0  0  0
  -11.5770    5.6820   10.5960 N   0  0  0  0  0  0  0  0  0  0  0  0
  -12.4690    4.7490   10.1080 N   0  0  0  0  0  0  0  0  0  0  0  0
  -12.0160    4.1880    8.9920 N   0  0  0  0  0  0  0  0  0  0  0  0
  -10.8400    4.7900    8.7610 N   0  0  0  0  0  0  0  0  0  0  0  0
   -9.9950    4.4790    7.6090 C   0  0  0  0  0  0  0  0  0  0  0  0
   -8.6630    5.2070    7.7200 C   0  0  0  0  0  0  0  0  0  0  0  0
  -10.7490    4.8610    6.3730 C   0  0  0  0  0  0  0  0  0  0  0  0
  -11.0350    6.2020    6.1170 C   0  0  0  0  0  0  0  0  0  0  0  0
  -11.7370    6.5580    4.9650 C   0  0  0  0  0  0  0  0  0  0  0  0
  -12.1550    5.5730    4.0710 C   0  0  0  0  0  0  0  0  0  0  0  0
  -11.8700    4.2310    4.3270 C   0  0  0  0  0  0  0  0  0  0  0  0
  -11.1660    3.8760    5.4790 C   0  0  0  0  0  0  0  0  0  0  0  0
  -12.0160    7.8660    4.7150 O   0  0  0  0  0  0  0  0  0  0  0  0
   -6.8990    7.6510    9.7710 O   0  0  0  0  0  0  0  0  0  0  0  0
   -6.8036    3.1721    5.2886 N   0  0  0  0  0  0  0  0  0  0  0  0
   -7.3362    2.4501    4.3124 N   0  0  0  0  0  0  0  0  0  0  0  0
   -8.5896    2.8237    4.1051 N   0  0  0  0  0  0  0  0  0  0  0  0
   -8.8894    3.8055    4.9385 N   0  0  0  0  0  0  0  0  0  0  0  0
  -10.1877    4.4849    5.0092 C   0  0  0  0  0  0  0  0  0  0  0  0
  -10.8399    4.6366    3.6188 C   0  0  0  0  0  0  0  0  0  0  0  0
  -12.0339    5.5835    3.6592 C   0  0  0  0  0  0  0  0  0  0  0  0
  -12.8996    5.1768    2.4824 C   0  0  0  0  0  0  0  0  0  0  0  0
  -12.6834    3.6787    2.3074 C   0  0  0  0  0  0  0  0  0  0  0  0
  -11.3945    3.3255    3.0497 C   0  0  0  0  0  0  0  0  0  0  0  0
  1  3  4  0
  1 14  4  0
  1  2  1  0
  3  4  4  0
  4  5  4  0
  5  6  4  0
  5 22  1  0
  6  7  1  0
  6 14  4  0
  7  8  1  0
  8  9  4  0
  8 12  4  0
  9 10  4  0
 10 11  4  0
 11 12  4  0
 12 13  1  0
 13 14  1  0
 13 15  1  6
 15 16  4  0
 15 20  4  0
 16 17  4  0
 17 18  4  0
 17 21  1  0
 18 19  4  0
 19 20  4  0
 23 24  4  0
 24 25  4  0
 25 26  4  0
 26 27  1  0
 27 28  1  0
 28 29  1  0
 29 30  1  0
 30 31  1  0
 31 32  1  0
 32 28  1  0
  2 23  4  0
  2 26  4  0
M  END
$$$$

     RDKit          3D

 39 43  0  0  0  0  0  0  0  0999 V2000
   -7.6410    4.9930    6.8080 C   0  0  0  0  0  0  0  0  0  1  0  0
   -7.7310    4.0530    5.7140 C   0  0  0  0  0  0  0  0  0  2  0  0
   -6.4520    5.6300    6.8680 N   0  0  0  0  0  0  0  0  0  0  0  0
   -6.2260    6.5240    7.8670 N   0  0  0  0  0  0  0  0  0  0  0  0
   -7.1930    6.7500    8.7820 C   0  0  0  0  0  0  0  0  0  0  0  0
   -8.4240    6.1170    8.7580 C   0  0  0  0  0  0  0  0  0  0  0  0
   -9.3950    6.3570    9.7450 N   0  0  0  0  0  0  0  0  0  0  0  0
  -10.5620    5.6840    9.7600 C   0  0  0  0  0  0  0  0  0  0  0  0
  -11.5770    5.6820   10.5960 N   0  0  0  0  0  0  0  0  0  0  0  0
  -12.4690    4.7490   10.1080 N   0  0  0  0  0  0  0  0  0  0  0  0
  -12.0160    4.1880    8.9920 N   0  0  0  0  0  0  0  0  0  0  0  0
  -10.8400    4.7900    8.7610 N   0  0  0  0  0  0  0  0  0  0  0  0
   -9.9950    4.4790    7.6090 C   0  0  0  0  0  0  0  0  0  0  0  0
   -8.6630    5.2070    7.7200 C   0  0  0  0  0  0  0  0  0  0  0  0
  -10.7490    4.8610    6.3730 C   0  0  0  0  0  0  0  0  0  0  0  0
  -11.0350    6.2020    6.1170 C   0  0  0  0  0  0  0  0  0  0  0  0
  -11.7370    6.5580    4.9650 C   0  0  0  0  0  0  0  0  0  0  0  0
  -12.1550    5.5730    4.0710 C   0  0  0  0  0  0  0  0  0  0  0  0
  -11.8700    4.2310    4.3270 C   0  0  0  0  0  0  0  0  0  0  0  0
  -11.1660    3.8760    5.4790 C   0  0  0  0  0  0  0  0  0  0  0  0
  -12.0160    7.8660    4.7150 O   0  0  0  0  0  0  0  0  0  0  0  0
   -6.8990    7.6510    9.7710 O   0  0  0  0  0  0  0  0  0  0  0  0
   -6.8213    3.1256    5.2292 C   0  0  0  0  0  0  0  0  0  0  0  0
   -7.3366    2.3709    4.2410 N   0  0  0  0  0  0  0  0  0  0  0  0
   -8.5904    2.7474    4.0489 N   0  0  0  0  0  0  0  0  0  0  0  0
   -8.8992    3.7508    4.8962 C   0  0  0  0  0  0  0  0  0  0  0  0
  -10.2343    4.4629    4.9617 C   0  0  0  0  0  0  0  0  0  0  0  0
  -10.9650    4.6241    3.6091 C   0  0  0  0  0  0  0  0  0  0  0  0
  -11.6078    3.3709    3.1945 N   0  0  0  0  0  0  0  0  0  0  0  0
  -12.5328    3.3202    2.1025 C   0  0  0  0  0  0  0  0  0  0  0  0
  -13.0759    2.2226    1.8065 O   0  0  0  0  0  0  0  0  0  0  0  0
  -12.8212    4.4892    1.3801 O   0  0  0  0  0  0  0  0  0  0  0  0
  -13.6895    4.5952    0.2427 C   0  0  0  0  0  0  0  0  0  0  0  0
  -15.1318    4.2104    0.6231 C   0  0  0  0  0  0  0  0  0  0  0  0
  -13.6693    6.0640   -0.2064 C   0  0  0  0  0  0  0  0  0  0  0  0
  -13.1780    3.7144   -0.9129 C   0  0  0  0  0  0  0  0  0  0  0  0
  -10.0438    5.1586    2.5403 C   0  0  0  0  0  0  0  0  0  0  0  0
   -9.5817    6.3258    2.6390 O   0  0  0  0  0  0  0  0  0  0  0  0
   -9.6861    4.3744    1.4493 O   0  0  0  0  0  0  0  0  0  0  0  0
  1  3  4  0
  1 14  4  0
  1  2  1  0
  3  4  4  0
  4  5  4  0
  5  6  4  0
  5 22  1  0
  6  7  1  0
  6 14  4  0
  7  8  1  0
  8  9  4  0
  8 12  4  0
  9 10  4  0
 10 11  4  0
 11 12  4  0
 12 13  1  0
 13 14  1  0
 13 15  1  6
 15 16  4  0
 15 20  4  0
 16 17  4  0
 17 18  4  0
 17 21  1  0
 18 19  4  0
 19 20  4  0
 23 24  4  0
 24 25  4  0
 25 26  4  0
 26 27  1  0
 27 28  1  0
 28 29  1  0
 29 30  1  0
 30 31  2  0
 30 32  1  0
 32 33  1  0
 33 34  1  0
 33 35  1  0
 33 36  1  0
 28 37  1  0
 37 38  2  0
 37 39  1  0
  2 23  4  0
  2 26  4  0
M  CHG  1  39  -1
M  END
$$$$

     RDKit          3D

 39 43  0  0  0  0  0  0  0  0999 V2000
   -7.6410    4.9930    6.8080 C   0  0  0  0  0  0  0  0  0  1  0  0
   -7.7310    4.0530    5.7140 C   0  0  0  0  0  0  0  0  0  2  0  0
   -6.4520    5.6300    6.8680 N   0  0  0  0  0  0  0  0  0  0  0  0
   -6.2260    6.5240    7.8670 N   0  0  0  0  0  0  0  0  0  0  0  0
   -7.1930    6.7500    8.7820 C   0  0  0  0  0  0  0  0  0  0  0  0
   -8.4240    6.1170    8.7580 C   0  0  0  0  0  0  0  0  0  0  0  0
   -9.3950    6.3570    9.7450 N   0  0  0  0  0  0  0  0  0  0  0  0
  -10.5620    5.6840    9.7600 C   0  0  0  0  0  0  0  0  0  0  0  0
  -11.5770    5.6820   10.5960 N   0  0  0  0  0  0  0  0  0  0  0  0
  -12.4690    4.7490   10.1080 N   0  0  0  0  0  0  0  0  0  0  0  0
  -12.0160    4.1880    8.9920 N   0  0  0  0  0  0  0  0  0  0  0  0
  -10.8400    4.7900    8.7610 N   0  0  0  0  0  0  0  0  0  0  0  0
   -9.9950    4.4790    7.6090 C   0  0  0  0  0  0  0  0  0  0  0  0
   -8.6630    5.2070    7.7200 C   0  0  0  0  0  0  0  0  0  0  0  0
  -10.7490    4.8610    6.3730 C   0  0  0  0  0  0  0  0  0  0  0  0
  -11.0350    6.2020    6.1170 C   0  0  0  0  0  0  0  0  0  0  0  0
  -11.7370    6.5580    4.9650 C   0  0  0  0  0  0  0  0  0  0  0  0
  -12.1550    5.5730    4.0710 C   0  0  0  0  0  0  0  0  0  0  0  0
  -11.8700    4.2310    4.3270 C   0  0  0  0  0  0  0  0  0  0  0  0
  -11.1660    3.8760    5.4790 C   0  0  0  0  0  0  0  0  0  0  0  0
  -12.0160    7.8660    4.7150 O   0  0  0  0  0  0  0  0  0  0  0  0
   -6.8990    7.6510    9.7710 O   0  0  0  0  0  0  0  0  0  0  0  0
   -6.8233    3.1214    5.2334 C   0  0  0  0  0  0  0  0  0  0  0  0
   -7.3395    2.3653    4.2474 N   0  0  0  0  0  0  0  0  0  0  0  0
   -8.5913    2.7456    4.0511 N   0  0  0  0  0  0  0  0  0  0  0  0
   -8.8981    3.7529    4.8944 C   0  0  0  0  0  0  0  0  0  0  0  0
  -10.2281    4.4757    4.9473 C   0  0  0  0  0  0  0  0  0  0  0  0
  -10.9212    4.6816    3.5808 C   0  0  0  0  0  0  0  0  0  0  0  0
  -11.5873    3.4526    3.1269 N   0  0  0  0  0  0  0  0  0  0  0  0
  -12.5136    3.4406    2.0338 C   0  0  0  0  0  0  0  0  0  0  0  0
  -12.7513    4.5016    1.3957 O   0  0  0  0  0  0  0  0  0  0  0  0
  -13.1511    2.2366    1.6980 O   0  0  0  0  0  0  0  0  0  0  0  0
  -14.0839    2.0405    0.6243 C   0  0  0  0  0  0  0  0  0  0  0  0
  -15.3375    2.9132    0.8267 C   0  0  0  0  0  0  0  0  0  0  0  0
  -14.5010    0.5622    0.6492 C   0  0  0  0  0  0  0  0  0  0  0  0
  -13.4216    2.3481   -0.7324 C   0  0  0  0  0  0  0  0  0  0  0  0
   -9.9581    5.2153    2.5489 C   0  0  0  0  0  0  0  0  0  0  0  0
   -9.6510    4.5357    1.5333 O   0  0  0  0  0  0  0  0  0  0  0  0
   -9.3861    6.4677    2.7283 O   0  0  0  0  0  0  0  0  0  0  0  0
  1  3  4  0
  1 14  4  0
  1  2  1  0
  3  4  4  0
  4  5  4  0
  5  6  4  0
  5 22  1  0
  6  7  1  0
  6 14  4  0
  7  8  1  0
  8  9  4  0
  8 12  4  0
  9 10  4  0
 10 11  4  0
 11 12  4  0
 12 13  1  0
 13 14  1  0
 13 15  1  6
 15 16  4  0
 15 20  4  0
 16 17  4  0
 17 18  4  0
 17 21  1  0
 18 19  4  0
 19 20  4  0
 23 24  4  0
 24 25  4  0
 25 26  4  0
 26 27  1  0
 27 28  1  0
 28 29  1  0
 29 30  1  0
 30 31  2  0
 30 32  1  0
 32 33  1  0
 33 34  1  0
 33 35  1  0
 33 36  1  0
 28 37  1  0
 37 38  2  0
 37 39  1  0
  2 23  4  0
  2 26  4  0
M  CHG  1  39  -1
M  END
$$$$

     RDKit          3D

 40 44  0  0  0  0  0  0  0  0999 V2000
   -7.6410    4.9930    6.8080 C   0  0  0  0  0  0  0  0  0  1  0  0
   -7.7310    4.0530    5.7140 C   0  0  0  0  0  0  0  0  0  2  0  0
   -6.4520    5.6300    6.8680 N   0  0  0  0  0  0  0  0  0  0  0  0
   -6.2260    6.5240    7.8670 N   0  0  0  0  0  0  0  0  0  0  0  0
   -7.1930    6.7500    8.7820 C   0  0  0  0  0  0  0  0  0  0  0  0
   -8.4240    6.1170    8.7580 C   0  0  0  0  0  0  0  0  0  0  0  0
   -9.3950    6.3570    9.7450 N   0  0  0  0  0  0  0  0  0  0  0  0
  -10.5620    5.6840    9.7600 C   0  0  0  0  0  0  0  0  0  0  0  0
  -11.5770    5.6820   10.5960 N   0  0  0  0  0  0  0  0  0  0  0  0
  -12.4690    4.7490   10.1080 N   0  0  0  0  0  0  0  0  0  0  0  0
  -12.0160    4.1880    8.9920 N   0  0  0  0  0  0  0  0  0  0  0  0
  -10.8400    4.7900    8.7610 N   0  0  0  0  0  0  0  0  0  0  0  0
   -9.9950    4.4790    7.6090 C   0  0  0  0  0  0  0  0  0  0  0  0
   -8.6630    5.2070    7.7200 C   0  0  0  0  0  0  0  0  0  0  0  0
  -10.7490    4.8610    6.3730 C   0  0  0  0  0  0  0  0  0  0  0  0
  -11.0350    6.2020    6.1170 C   0  0  0  0  0  0  0  0  0  0  0  0
  -11.7370    6.5580    4.9650 C   0  0  0  0  0  0  0  0  0  0  0  0
  -12.1550    5.5730    4.0710 C   0  0  0  0  0  0  0  0  0  0  0  0
  -11.8700    4.2310    4.3270 C   0  0  0  0  0  0  0  0  0  0  0  0
  -11.1660    3.8760    5.4790 C   0  0  0  0  0  0  0  0  0  0  0  0
  -12.0160    7.8660    4.7150 O   0  0  0  0  0  0  0  0  0  0  0  0
   -6.8990    7.6510    9.7710 O   0  0  0  0  0  0  0  0  0  0  0  0
   -6.8643    3.0622    5.4104 N   0  0  0  0  0  0  0  0  0  0  0  0
   -7.2896    2.4088    4.3397 N   0  0  0  0  0  0  0  0  0  0  0  0
   -8.4571    2.9710    3.9776 C   0  0  0  0  0  0  0  0  0  0  0  0
   -9.3809    2.4683    2.5218 S   0  0  0  0  0  0  0  0  0  0  0  0
  -10.4386    1.2862    3.4254 C   0  0  0  0  0  0  0  0  0  0  0  0
   -9.6474    0.0928    3.8654 C   0  0  0  0  0  0  0  0  0  0  0  0
   -9.5301   -0.1553    5.0963 O   0  0  0  0  0  0  0  0  0  0  0  0
   -9.0309   -0.7615    2.8938 N   0  0  0  0  0  0  0  0  0  0  0  0
   -8.1977   -1.8959    3.2961 C   0  0  0  0  0  0  0  0  0  0  0  0
   -7.6943   -2.6931    2.0755 C   0  0  0  0  0  0  0  0  0  0  0  0
   -6.6145   -3.6945    2.5030 C   0  0  0  0  0  0  0  0  0  0  0  0
   -8.8470   -3.4302    1.3780 C   0  0  0  0  0  0  0  0  0  0  0  0
   -8.8078    3.9746    4.8070 N   0  0  0  0  0  0  0  0  0  0  0  0
   -9.8821    4.9525    4.6090 C   0  0  0  0  0  0  0  0  0  0  0  0
   -9.3664    6.1471    3.8032 C   0  0  0  0  0  0  0  0  0  0  0  0
  -10.4448    7.1658    3.6053 C   0  0  0  0  0  0  0  0  0  0  0  0
  -11.4693    6.8827    2.9297 O   0  0  0  0  0  0  0  0  0  0  0  0
  -10.3142    8.4338    4.1573 O   0  0  0  0  0  0  0  0  0  0  0  0
  1  3  4  0
  1 14  4  0
  1  2  1  0
  3  4  4  0
  4  5  4  0
  5  6  4  0
  5 22  1  0
  6  7  1  0
  6 14  4  0
  7  8  1  0
  8  9  4  0
  8 12  4  0
  9 10  4  0
 10 11  4  0
 11 12  4  0
 12 13  1  0
 13 14  1  0
 13 15  1  6
 15 16  4  0
 15 20  4  0
 16 17  4  0
 17 18  4  0
 17 21  1  0
 18 19  4  0
 19 20  4  0
 23 24  4  0
 24 25  4  0
 25 26  1  0
 26 27  1  0
 27 28  1  0
 28 29  2  0
 28 30  1  0
 30 31  1  0
 31 32  1  0
 32 33  1  0
 32 34  1  0
 25 35  4  0
 35 36  1  0
 36 37  1  0
 37 38  1  0
 38 39  2  0
 38 40  1  0
  2 23  4  0
  2 35  4  0
M  CHG  1  40  -1
M  END
$$$$

     RDKit          3D

 42 48  0  0  0  0  0  0  0  0999 V2000
   -7.6410    4.9930    6.8080 C   0  0  0  0  0  0  0  0  0  1  0  0
   -7.7310    4.0530    5.7140 C   0  0  0  0  0  0  0  0  0  2  0  0
   -6.4520    5.6300    6.8680 N   0  0  0  0  0  0  0  0  0  0  0  0
   -6.2260    6.5240    7.8670 N   0  0  0  0  0  0  0  0  0  0  0  0
   -7.1930    6.7500    8.7820 C   0  0  0  0  0  0  0  0  0  0  0  0
   -8.4240    6.1170    8.7580 C   0  0  0  0  0  0  0  0  0  0  0  0
   -9.3950    6.3570    9.7450 N   0  0  0  0  0  0  0  0  0  0  0  0
  -10.5620    5.6840    9.7600 C   0  0  0  0  0  0  0  0  0  0  0  0
  -11.5770    5.6820   10.5960 N   0  0  0  0  0  0  0  0  0  0  0  0
  -12.4690    4.7490   10.1080 N   0  0  0  0  0  0  0  0  0  0  0  0
  -12.0160    4.1880    8.9920 N   0  0  0  0  0  0  0  0  0  0  0  0
  -10.8400    4.7900    8.7610 N   0  0  0  0  0  0  0  0  0  0  0  0
   -9.9950    4.4790    7.6090 C   0  0  0  0  0  0  0  0  0  0  0  0
   -8.6630    5.2070    7.7200 C   0  0  0  0  0  0  0  0  0  0  0  0
  -10.7490    4.8610    6.3730 C   0  0  0  0  0  0  0  0  0  0  0  0
  -11.0350    6.2020    6.1170 C   0  0  0  0  0  0  0  0  0  0  0  0
  -11.7370    6.5580    4.9650 C   0  0  0  0  0  0  0  0  0  0  0  0
  -12.1550    5.5730    4.0710 C   0  0  0  0  0  0  0  0  0  0  0  0
  -11.8700    4.2310    4.3270 C   0  0  0  0  0  0  0  0  0  0  0  0
  -11.1660    3.8760    5.4790 C   0  0  0  0  0  0  0  0  0  0  0  0
  -12.0160    7.8660    4.7150 O   0  0  0  0  0  0  0  0  0  0  0  0
   -6.8990    7.6510    9.7710 O   0  0  0  0  0  0  0  0  0  0  0  0
   -6.8420    3.0282    5.5210 N   0  0  0  0  0  0  0  0  0  0  0  0
   -6.9174    2.0812    4.5311 C   0  0  0  0  0  0  0  0  0  0  0  0
   -5.8602    1.0523    4.4229 C   0  0  0  0  0  0  0  0  0  0  0  0
   -5.9385    0.1677    3.5265 O   0  0  0  0  0  0  0  0  0  0  0  0
   -4.7418    1.0560    5.3266 N   0  0  0  0  0  0  0  0  0  0  0  0
   -3.7048    0.0186    5.2903 C   0  0  0  0  0  0  0  0  0  0  0  0
   -4.2332   -1.2821    5.9014 C   0  0  0  0  0  0  0  0  0  0  0  0
   -2.4762    0.4782    6.0262 C   0  0  0  0  0  0  0  0  0  0  0  0
   -2.5312    0.7530    7.2546 O   0  0  0  0  0  0  0  0  0  0  0  0
   -1.2691    0.6044    5.3501 O   0  0  0  0  0  0  0  0  0  0  0  0
   -8.0031    2.0994    3.6276 C   0  0  0  0  0  0  0  0  0  0  0  0
   -8.9483    3.1062    3.7885 C   0  0  0  0  0  0  0  0  0  0  0  0
   -8.8484    4.0493    4.7867 C   0  0  0  0  0  0  0  0  0  0  0  0
   -9.8510    4.9563    4.7128 N   0  0  0  0  0  0  0  0  0  0  0  0
  -10.5979    4.5584    3.6603 C   0  0  0  0  0  0  0  0  0  0  0  0
  -11.7499    5.1688    3.1671 C   0  0  0  0  0  0  0  0  0  0  0  0
  -12.3710    4.5933    2.0427 C   0  0  0  0  0  0  0  0  0  0  0  0
  -11.8320    3.4350    1.4384 C   0  0  0  0  0  0  0  0  0  0  0  0
  -10.6659    2.8380    1.9514 C   0  0  0  0  0  0  0  0  0  0  0  0
  -10.0760    3.4269    3.0681 C   0  0  0  0  0  0  0  0  0  0  0  0
  1  3  4  0
  1 14  4  0
  1  2  1  0
  3  4  4  0
  4  5  4  0
  5  6  4  0
  5 22  1  0
  6  7  1  0
  6 14  4  0
  7  8  1  0
  8  9  4  0
  8 12  4  0
  9 10  4  0
 10 11  4  0
 11 12  4  0
 12 13  1  0
 13 14  1  0
 13 15  1  6
 15 16  4  0
 15 20  4  0
 16 17  4  0
 17 18  4  0
 17 21  1  0
 18 19  4  0
 19 20  4  0
 23 24  4  0
 24 25  1  0
 25 26  2  0
 25 27  1  0
 27 28  1  0
 28 29  1  0
 28 30  1  0
 30 31  2  0
 30 32  1  0
 24 33  4  0
 33 34  4  0
 34 35  4  0
 35 36  4  0
 36 37  4  0
 37 38  4  0
 38 39  4  0
 39 40  4  0
 40 41  4  0
 41 42  4  0
 42 37  4  0
 42 34  4  0
  2 23  4  0
  2 35  4  0
M  CHG  1  32  -1
M  END
$$$$

     RDKit          3D

 42 48  0  0  0  0  0  0  0  0999 V2000
   -7.6410    4.9930    6.8080 C   0  0  0  0  0  0  0  0  0  1  0  0
   -7.7310    4.0530    5.7140 C   0  0  0  0  0  0  0  0  0  2  0  0
   -6.4520    5.6300    6.8680 N   0  0  0  0  0  0  0  0  0  0  0  0
   -6.2260    6.5240    7.8670 N   0  0  0  0  0  0  0  0  0  0  0  0
   -7.1930    6.7500    8.7820 C   0  0  0  0  0  0  0  0  0  0  0  0
   -8.4240    6.1170    8.7580 C   0  0  0  0  0  0  0  0  0  0  0  0
   -9.3950    6.3570    9.7450 N   0  0  0  0  0  0  0  0  0  0  0  0
  -10.5620    5.6840    9.7600 C   0  0  0  0  0  0  0  0  0  0  0  0
  -11.5770    5.6820   10.5960 N   0  0  0  0  0  0  0  0  0  0  0  0
  -12.4690    4.7490   10.1080 N   0  0  0  0  0  0  0  0  0  0  0  0
  -12.0160    4.1880    8.9920 N   0  0  0  0  0  0  0  0  0  0  0  0
  -10.8400    4.7900    8.7610 N   0  0  0  0  0  0  0  0  0  0  0  0
   -9.9950    4.4790    7.6090 C   0  0  0  0  0  0  0  0  0  0  0  0
   -8.6630    5.2070    7.7200 C   0  0  0  0  0  0  0  0  0  0  0  0
  -10.7490    4.8610    6.3730 C   0  0  0  0  0  0  0  0  0  0  0  0
  -11.0350    6.2020    6.1170 C   0  0  0  0  0  0  0  0  0  0  0  0
  -11.7370    6.5580    4.9650 C   0  0  0  0  0  0  0  0  0  0  0  0
  -12.1550    5.5730    4.0710 C   0  0  0  0  0  0  0  0  0  0  0  0
  -11.8700    4.2310    4.3270 C   0  0  0  0  0  0  0  0  0  0  0  0
  -11.1660    3.8760    5.4790 C   0  0  0  0  0  0  0  0  0  0  0  0
  -12.0160    7.8660    4.7150 O   0  0  0  0  0  0  0  0  0  0  0  0
   -6.8990    7.6510    9.7710 O   0  0  0  0  0  0  0  0  0  0  0  0
   -6.8123    3.1003    5.3300 C   0  0  0  0  0  0  0  0  0  0  0  0
   -7.3487    2.3355    4.3162 C   0  0  0  0  0  0  0  0  0  0  0  0
   -6.6691    1.1901    3.6848 C   0  0  0  0  0  0  0  0  0  0  0  0
   -5.4144    1.2137    3.5628 O   0  0  0  0  0  0  0  0  0  0  0  0
   -7.4079    0.0310    3.2735 N   0  0  0  0  0  0  0  0  0  0  0  0
   -6.7950   -1.0681    2.5294 C   0  0  0  0  0  0  0  0  0  0  0  0
   -6.5184   -0.6622    1.0741 C   0  0  0  0  0  0  0  0  0  0  0  0
   -7.8023   -0.3357    0.3053 C   0  0  0  0  0  0  0  0  0  0  0  0
   -7.7137   -1.1782   -0.9378 C   0  0  0  0  0  0  0  0  0  0  0  0
   -6.2927   -1.6948   -0.9169 C   0  0  0  0  0  0  0  0  0  0  0  0
   -5.8530   -1.7167    0.4172 O   0  0  0  0  0  0  0  0  0  0  0  0
   -8.6159    2.8477    4.0544 C   0  0  0  0  0  0  0  0  0  0  0  0
   -9.5432    2.3768    2.9666 C   0  0  0  0  0  0  0  0  0  0  0  0
   -8.8848    3.8682    4.9106 N   0  0  0  0  0  0  0  0  0  0  0  0
  -10.0924    4.7121    4.9127 C   0  0  0  0  0  0  0  0  0  0  0  0
   -9.7954    6.1519    4.4462 C   0  0  0  0  0  0  0  0  0  0  0  0
   -9.2628    6.2213    3.0197 C   0  0  0  0  0  0  0  0  0  0  0  0
  -10.4881    6.5164    2.2156 C   0  0  0  0  0  0  0  0  0  0  0  0
  -11.3762    7.2386    3.2062 C   0  0  0  0  0  0  0  0  0  0  0  0
  -10.9863    6.9068    4.5205 O   0  0  0  0  0  0  0  0  0  0  0  0
  1  3  4  0
  1 14  4  0
  1  2  1  0
  3  4  4  0
  4  5  4  0
  5  6  4  0
  5 22  1  0
  6  7  1  0
  6 14  4  0
  7  8  1  0
  8  9  4  0
  8 12  4  0
  9 10  4  0
 10 11  4  0
 11 12  4  0
 12 13  1  0
 13 14  1  0
 13 15  1  6
 15 16  4  0
 15 20  4  0
 16 17  4  0
 17 18  4  0
 17 21  1  0
 18 19  4  0
 19 20  4  0
 23 24  4  0
 24 25  1  0
 25 26  2  0
 25 27  1  0
 27 28  1  0
 28 29  1  0
 29 30  1  0
 30 31  1  0
 31 32  1  0
 32 33  1  0
 24 34  4  0
 34 35  1  0
 34 36  4  0
 36 37  1  0
 37 38  1  0
 38 39  1  0
 39 40  1  0
 40 41  1  0
 41 42  1  0
 42 38  1  0
 33 29  1  0
  2 23  4  0
  2 36  4  0
M  END
$$$$

     RDKit          3D

 42 48  0  0  0  0  0  0  0  0999 V2000
   -7.6410    4.9930    6.8080 C   0  0  0  0  0  0  0  0  0  1  0  0
   -7.7310    4.0530    5.7140 C   0  0  0  0  0  0  0  0  0  2  0  0
   -6.4520    5.6300    6.8680 N   0  0  0  0  0  0  0  0  0  0  0  0
   -6.2260    6.5240    7.8670 N   0  0  0  0  0  0  0  0  0  0  0  0
   -7.1930    6.7500    8.7820 C   0  0  0  0  0  0  0  0  0  0  0  0
   -8.4240    6.1170    8.7580 C   0  0  0  0  0  0  0  0  0  0  0  0
   -9.3950    6.3570    9.7450 N   0  0  0  0  0  0  0  0  0  0  0  0
  -10.5620    5.6840    9.7600 C   0  0  0  0  0  0  0  0  0  0  0  0
  -11.5770    5.6820   10.5960 N   0  0  0  0  0  0  0  0  0  0  0  0
  -12.4690    4.7490   10.1080 N   0  0  0  0  0  0  0  0  0  0  0  0
  -12.0160    4.1880    8.9920 N   0  0  0  0  0  0  0  0  0  0  0  0
  -10.8400    4.7900    8.7610 N   0  0  0  0  0  0  0  0  0  0  0  0
   -9.9950    4.4790    7.6090 C   0  0  0  0  0  0  0  0  0  0  0  0
   -8.6630    5.2070    7.7200 C   0  0  0  0  0  0  0  0  0  0  0  0
  -10.7490    4.8610    6.3730 C   0  0  0  0  0  0  0  0  0  0  0  0
  -11.0350    6.2020    6.1170 C   0  0  0  0  0  0  0  0  0  0  0  0
  -11.7370    6.5580    4.9650 C   0  0  0  0  0  0  0  0  0  0  0  0
  -12.1550    5.5730    4.0710 C   0  0  0  0  0  0  0  0  0  0  0  0
  -11.8700    4.2310    4.3270 C   0  0  0  0  0  0  0  0  0  0  0  0
  -11.1660    3.8760    5.4790 C   0  0  0  0  0  0  0  0  0  0  0  0
  -12.0160    7.8660    4.7150 O   0  0  0  0  0  0  0  0  0  0  0  0
   -6.8990    7.6510    9.7710 O   0  0  0  0  0  0  0  0  0  0  0  0
   -6.7777    3.1652    5.2750 C   0  0  0  0  0  0  0  0  0  0  0  0
   -7.2887    2.4394    4.2235 C   0  0  0  0  0  0  0  0  0  0  0  0
   -6.5189    1.4671    3.4341 C   0  0  0  0  0  0  0  0  0  0  0  0
   -5.3427    1.7576    3.0894 O   0  0  0  0  0  0  0  0  0  0  0  0
   -7.0646    0.1743    3.1335 N   0  0  0  0  0  0  0  0  0  0  0  0
   -6.3961   -0.7814    2.2500 C   0  0  0  0  0  0  0  0  0  0  0  0
   -5.1535   -1.3930    2.9167 C   0  0  0  0  0  0  0  0  0  0  0  0
   -5.4830   -2.1250    4.2085 C   0  0  0  0  0  0  0  0  0  0  0  0
   -4.4008   -3.1580    4.2729 C   0  0  0  0  0  0  0  0  0  0  0  0
   -4.0345   -3.3687    2.8131 C   0  0  0  0  0  0  0  0  0  0  0  0
   -4.5440   -2.3067    2.0348 O   0  0  0  0  0  0  0  0  0  0  0  0
   -8.5886    2.8862    4.0144 C   0  0  0  0  0  0  0  0  0  0  0  0
   -9.4518    2.5366    2.8332 C   0  0  0  0  0  0  0  0  0  0  0  0
   -8.8860    3.8605    4.9142 N   0  0  0  0  0  0  0  0  0  0  0  0
  -10.0460    4.7635    4.8519 C   0  0  0  0  0  0  0  0  0  0  0  0
   -9.7455    5.9783    3.9602 C   0  0  0  0  0  0  0  0  0  0  0  0
  -10.9536    6.8884    3.8184 C   0  0  0  0  0  0  0  0  0  0  0  0
  -10.3282    8.2337    3.6248 C   0  0  0  0  0  0  0  0  0  0  0  0
   -8.9739    8.0926    4.2941 C   0  0  0  0  0  0  0  0  0  0  0  0
   -8.6837    6.7285    4.4998 O   0  0  0  0  0  0  0  0  0  0  0  0
  1  3  4  0
  1 14  4  0
  1  2  1  0
  3  4  4  0
  4  5  4  0
  5  6  4  0
  5 22  1  0
  6  7  1  0
  6 14  4  0
  7  8  1  0
  8  9  4  0
  8 12  4  0
  9 10  4  0
 10 11  4  0
 11 12  4  0
 12 13  1  0
 13 14  1  0
 13 15  1  6
 15 16  4  0
 15 20  4  0
 16 17  4  0
 17 18  4  0
 17 21  1  0
 18 19  4  0
 19 20  4  0
 23 24  4  0
 24 25  1  0
 25 26  2  0
 25 27  1  0
 27 28  1  0
 28 29  1  0
 29 30  1  0
 30 31  1  0
 31 32  1  0
 32 33  1  0
 24 34  4  0
 34 35  1  0
 34 36  4  0
 36 37  1  0
 37 38  1  0
 38 39  1  0
 39 40  1  0
 40 41  1  0
 41 42  1  0
 42 38  1  0
 33 29  1  0
  2 23  4  0
  2 36  4  0
M  END
$$$$

     RDKit          3D

 42 48  0  0  0  0  0  0  0  0999 V2000
   -7.6410    4.9930    6.8080 C   0  0  0  0  0  0  0  0  0  1  0  0
   -7.7310    4.0530    5.7140 C   0  0  0  0  0  0  0  0  0  2  0  0
   -6.4520    5.6300    6.8680 N   0  0  0  0  0  0  0  0  0  0  0  0
   -6.2260    6.5240    7.8670 N   0  0  0  0  0  0  0  0  0  0  0  0
   -7.1930    6.7500    8.7820 C   0  0  0  0  0  0  0  0  0  0  0  0
   -8.4240    6.1170    8.7580 C   0  0  0  0  0  0  0  0  0  0  0  0
   -9.3950    6.3570    9.7450 N   0  0  0  0  0  0  0  0  0  0  0  0
  -10.5620    5.6840    9.7600 C   0  0  0  0  0  0  0  0  0  0  0  0
  -11.5770    5.6820   10.5960 N   0  0  0  0  0  0  0  0  0  0  0  0
  -12.4690    4.7490   10.1080 N   0  0  0  0  0  0  0  0  0  0  0  0
  -12.0160    4.1880    8.9920 N   0  0  0  0  0  0  0  0  0  0  0  0
  -10.8400    4.7900    8.7610 N   0  0  0  0  0  0  0  0  0  0  0  0
   -9.9950    4.4790    7.6090 C   0  0  0  0  0  0  0  0  0  0  0  0
   -8.6630    5.2070    7.7200 C   0  0  0  0  0  0  0  0  0  0  0  0
  -10.7490    4.8610    6.3730 C   0  0  0  0  0  0  0  0  0  0  0  0
  -11.0350    6.2020    6.1170 C   0  0  0  0  0  0  0  0  0  0  0  0
  -11.7370    6.5580    4.9650 C   0  0  0  0  0  0  0  0  0  0  0  0
  -12.1550    5.5730    4.0710 C   0  0  0  0  0  0  0  0  0  0  0  0
  -11.8700    4.2310    4.3270 C   0  0  0  0  0  0  0  0  0  0  0  0
  -11.1660    3.8760    5.4790 C   0  0  0  0  0  0  0  0  0  0  0  0
  -12.0160    7.8660    4.7150 O   0  0  0  0  0  0  0  0  0  0  0  0
   -6.8990    7.6510    9.7710 O   0  0  0  0  0  0  0  0  0  0  0  0
   -6.8164    3.1017    5.3172 C   0  0  0  0  0  0  0  0  0  0  0  0
   -7.3821    2.3199    4.3297 C   0  0  0  0  0  0  0  0  0  0  0  0
   -6.7002    1.1985    3.6609 C   0  0  0  0  0  0  0  0  0  0  0  0
   -5.4643    1.2827    3.4287 O   0  0  0  0  0  0  0  0  0  0  0  0
   -7.4048   -0.0122    3.3524 N   0  0  0  0  0  0  0  0  0  0  0  0
   -6.8747   -0.9816    2.3911 C   0  0  0  0  0  0  0  0  0  0  0  0
   -7.6881   -2.2890    2.4274 C   0  0  0  0  0  0  0  0  0  0  0  0
   -7.2767   -3.2581    1.3318 C   0  0  0  0  0  0  0  0  0  0  0  0
   -6.2037   -4.0729    1.9928 C   0  0  0  0  0  0  0  0  0  0  0  0
   -6.5012   -3.9191    3.4786 C   0  0  0  0  0  0  0  0  0  0  0  0
   -7.4950   -2.9351    3.6627 O   0  0  0  0  0  0  0  0  0  0  0  0
   -8.6728    2.7999    4.1145 C   0  0  0  0  0  0  0  0  0  0  0  0
   -9.6136    2.3694    3.0205 C   0  0  0  0  0  0  0  0  0  0  0  0
   -8.9140    3.8367    4.9560 N   0  0  0  0  0  0  0  0  0  0  0  0
  -10.0758    4.7362    4.8944 C   0  0  0  0  0  0  0  0  0  0  0  0
   -9.8417    5.8524    3.8670 C   0  0  0  0  0  0  0  0  0  0  0  0
  -11.1235    6.5981    3.5378 C   0  0  0  0  0  0  0  0  0  0  0  0
  -10.6191    7.9477    3.1218 C   0  0  0  0  0  0  0  0  0  0  0  0
   -9.2370    8.0302    3.7564 C   0  0  0  0  0  0  0  0  0  0  0  0
   -8.9155    6.7922    4.3563 O   0  0  0  0  0  0  0  0  0  0  0  0
  1  3  4  0
  1 14  4  0
  1  2  1  0
  3  4  4  0
  4  5  4  0
  5  6  4  0
  5 22  1  0
  6  7  1  0
  6 14  4  0
  7  8  1  0
  8  9  4  0
  8 12  4  0
  9 10  4  0
 10 11  4  0
 11 12  4  0
 12 13  1  0
 13 14  1  0
 13 15  1  6
 15 16  4  0
 15 20  4  0
 16 17  4  0
 17 18  4  0
 17 21  1  0
 18 19  4  0
 19 20  4  0
 23 24  4  0
 24 25  1  0
 25 26  2  0
 25 27  1  0
 27 28  1  0
 28 29  1  0
 29 30  1  0
 30 31  1  0
 31 32  1  0
 32 33  1  0
 24 34  4  0
 34 35  1  0
 34 36  4  0
 36 37  1  0
 37 38  1  0
 38 39  1  0
 39 40  1  0
 40 41  1  0
 41 42  1  0
 42 38  1  0
 33 29  1  0
  2 23  4  0
  2 36  4  0
M  END
$$$$

     RDKit          3D

 42 47  0  0  0  0  0  0  0  0999 V2000
   -7.6410    4.9930    6.8080 C   0  0  0  0  0  0  0  0  0  1  0  0
   -7.7310    4.0530    5.7140 C   0  0  0  0  0  0  0  0  0  2  0  0
   -6.4520    5.6300    6.8680 N   0  0  0  0  0  0  0  0  0  0  0  0
   -6.2260    6.5240    7.8670 N   0  0  0  0  0  0  0  0  0  0  0  0
   -7.1930    6.7500    8.7820 C   0  0  0  0  0  0  0  0  0  0  0  0
   -8.4240    6.1170    8.7580 C   0  0  0  0  0  0  0  0  0  0  0  0
   -9.3950    6.3570    9.7450 N   0  0  0  0  0  0  0  0  0  0  0  0
  -10.5620    5.6840    9.7600 C   0  0  0  0  0  0  0  0  0  0  0  0
  -11.5770    5.6820   10.5960 N   0  0  0  0  0  0  0  0  0  0  0  0
  -12.4690    4.7490   10.1080 N   0  0  0  0  0  0  0  0  0  0  0  0
  -12.0160    4.1880    8.9920 N   0  0  0  0  0  0  0  0  0  0  0  0
  -10.8400    4.7900    8.7610 N   0  0  0  0  0  0  0  0  0  0  0  0
   -9.9950    4.4790    7.6090 C   0  0  0  0  0  0  0  0  0  0  0  0
   -8.6630    5.2070    7.7200 C   0  0  0  0  0  0  0  0  0  0  0  0
  -10.7490    4.8610    6.3730 C   0  0  0  0  0  0  0  0  0  0  0  0
  -11.0350    6.2020    6.1170 C   0  0  0  0  0  0  0  0  0  0  0  0
  -11.7370    6.5580    4.9650 C   0  0  0  0  0  0  0  0  0  0  0  0
  -12.1550    5.5730    4.0710 C   0  0  0  0  0  0  0  0  0  0  0  0
  -11.8700    4.2310    4.3270 C   0  0  0  0  0  0  0  0  0  0  0  0
  -11.1660    3.8760    5.4790 C   0  0  0  0  0  0  0  0  0  0  0  0
  -12.0160    7.8660    4.7150 O   0  0  0  0  0  0  0  0  0  0  0  0
   -6.8990    7.6510    9.7710 O   0  0  0  0  0  0  0  0  0  0  0  0
   -6.8567    3.0715    5.3897 N   0  0  0  0  0  0  0  0  0  0  0  0
   -7.3108    2.3945    4.3416 N   0  0  0  0  0  0  0  0  0  0  0  0
   -8.5001    2.9341    4.0112 C   0  0  0  0  0  0  0  0  0  0  0  0
   -9.4961    2.3873    2.6233 S   0  0  0  0  0  0  0  0  0  0  0  0
  -10.5345    1.2490    3.6265 C   0  0  0  0  0  0  0  0  0  0  0  0
   -9.7422    0.0434    4.0748 C   0  0  0  0  0  0  0  0  0  0  0  0
   -9.7064   -0.2380    5.3036 O   0  0  0  0  0  0  0  0  0  0  0  0
   -8.9895   -0.7416    3.1349 N   0  0  0  0  0  0  0  0  0  0  0  0
   -8.4844   -2.0586    3.4130 C   0  0  0  0  0  0  0  0  0  0  0  0
   -9.1808   -2.9499    4.2484 C   0  0  0  0  0  0  0  0  0  0  0  0
   -8.6851   -4.2373    4.4771 C   0  0  0  0  0  0  0  0  0  0  0  0
   -7.4882   -4.6531    3.8757 C   0  0  0  0  0  0  0  0  0  0  0  0
   -6.9791   -6.0481    4.0863 C   0  0  0  0  0  0  0  0  0  0  0  0
   -6.8133   -3.7789    3.0114 C   0  0  0  0  0  0  0  0  0  0  0  0
   -7.3088   -2.4920    2.7826 C   0  0  0  0  0  0  0  0  0  0  0  0
  -11.8480    0.8468    2.8997 C   0  0  0  0  0  0  0  0  0  0  0  0
  -11.6263    0.1437    1.5487 C   0  0  0  0  0  0  0  0  0  0  0  0
  -12.7684    2.0641    2.7160 C   0  0  0  0  0  0  0  0  0  0  0  0
   -8.8181    3.9453    4.8344 N   0  0  0  0  0  0  0  0  0  0  0  0
   -9.9071    4.8250    4.7194 N   0  0  0  0  0  0  0  0  0  0  0  0
  1  3  4  0
  1 14  4  0
  1  2  1  0
  3  4  4  0
  4  5  4  0
  5  6  4  0
  5 22  1  0
  6  7  1  0
  6 14  4  0
  7  8  1  0
  8  9  4  0
  8 12  4  0
  9 10  4  0
 10 11  4  0
 11 12  4  0
 12 13  1  0
 13 14  1  0
 13 15  1  6
 15 16  4  0
 15 20  4  0
 16 17  4  0
 17 18  4  0
 17 21  1  0
 18 19  4  0
 19 20  4  0
 23 24  4  0
 24 25  4  0
 25 26  1  0
 26 27  1  0
 27 28  1  0
 28 29  2  0
 28 30  1  0
 30 31  1  0
 31 32  4  0
 32 33  4  0
 33 34  4  0
 34 35  1  0
 34 36  4  0
 36 37  4  0
 27 38  1  0
 38 39  1  0
 38 40  1  0
 25 41  4  0
 41 42  1  0
 37 31  4  0
  2 23  4  0
  2 41  4  0
M  END
$$$$

     RDKit          3D

 41 47  0  0  0  0  0  0  0  0999 V2000
   -7.6410    4.9930    6.8080 C   0  0  0  0  0  0  0  0  0  1  0  0
   -7.7310    4.0530    5.7140 C   0  0  0  0  0  0  0  0  0  2  0  0
   -6.4520    5.6300    6.8680 N   0  0  0  0  0  0  0  0  0  0  0  0
   -6.2260    6.5240    7.8670 N   0  0  0  0  0  0  0  0  0  0  0  0
   -7.1930    6.7500    8.7820 C   0  0  0  0  0  0  0  0  0  0  0  0
   -8.4240    6.1170    8.7580 C   0  0  0  0  0  0  0  0  0  0  0  0
   -9.3950    6.3570    9.7450 N   0  0  0  0  0  0  0  0  0  0  0  0
  -10.5620    5.6840    9.7600 C   0  0  0  0  0  0  0  0  0  0  0  0
  -11.5770    5.6820   10.5960 N   0  0  0  0  0  0  0  0  0  0  0  0
  -12.4690    4.7490   10.1080 N   0  0  0  0  0  0  0  0  0  0  0  0
  -12.0160    4.1880    8.9920 N   0  0  0  0  0  0  0  0  0  0  0  0
  -10.8400    4.7900    8.7610 N   0  0  0  0  0  0  0  0  0  0  0  0
   -9.9950    4.4790    7.6090 C   0  0  0  0  0  0  0  0  0  0  0  0
   -8.6630    5.2070    7.7200 C   0  0  0  0  0  0  0  0  0  0  0  0
  -10.7490    4.8610    6.3730 C   0  0  0  0  0  0  0  0  0  0  0  0
  -11.0350    6.2020    6.1170 C   0  0  0  0  0  0  0  0  0  0  0  0
  -11.7370    6.5580    4.9650 C   0  0  0  0  0  0  0  0  0  0  0  0
  -12.1550    5.5730    4.0710 C   0  0  0  0  0  0  0  0  0  0  0  0
  -11.8700    4.2310    4.3270 C   0  0  0  0  0  0  0  0  0  0  0  0
  -11.1660    3.8760    5.4790 C   0  0  0  0  0  0  0  0  0  0  0  0
  -12.0160    7.8660    4.7150 O   0  0  0  0  0  0  0  0  0  0  0  0
   -6.8990    7.6510    9.7710 O   0  0  0  0  0  0  0  0  0  0  0  0
   -6.7861    3.1928    5.2840 N   0  0  0  0  0  0  0  0  0  0  0  0
   -7.2480    2.4798    4.2679 N   0  0  0  0  0  0  0  0  0  0  0  0
   -8.5167    2.8751    4.0577 C   0  0  0  0  0  0  0  0  0  0  0  0
   -9.5334    2.2418    2.7179 S   0  0  0  0  0  0  0  0  0  0  0  0
   -8.7558    3.2923    1.4399 C   0  0  0  0  0  0  0  0  0  0  0  0
   -9.1015    4.7362    1.6533 C   0  0  0  0  0  0  0  0  0  0  0  0
   -8.1381    5.6495    2.0842 C   0  0  0  0  0  0  0  0  0  0  0  0
   -8.5163    6.9715    2.3211 C   0  0  0  0  0  0  0  0  0  0  0  0
   -7.6428    7.7898    2.7230 O   0  0  0  0  0  0  0  0  0  0  0  0
   -9.8167    7.3658    2.1216 N   0  0  0  0  0  0  0  0  0  0  0  0
  -10.2009    8.6628    2.3549 C   0  0  0  0  0  0  0  0  0  0  0  0
  -11.5257    9.0621    2.1580 C   0  0  0  0  0  0  0  0  0  0  0  0
  -12.0469   10.8694    2.4909 Br  0  0  0  0  0  0  0  0  0  0  0  0
  -12.4648    8.1319    1.7180 C   0  0  0  0  0  0  0  0  0  0  0  0
  -12.0756    6.8170    1.4787 C   0  0  0  0  0  0  0  0  0  0  0  0
  -10.7441    6.4428    1.6845 C   0  0  0  0  0  0  0  0  0  0  0  0
  -10.3771    5.1546    1.4597 N   0  0  0  0  0  0  0  0  0  0  0  0
   -8.8876    3.8384    4.9257 N   0  0  0  0  0  0  0  0  0  0  0  0
  -10.1796    4.5180    5.0156 C   0  0  0  0  0  0  0  0  0  0  0  0
  1  3  4  0
  1 14  4  0
  1  2  1  0
  3  4  4  0
  4  5  4  0
  5  6  4  0
  5 22  1  0
  6  7  1  0
  6 14  4  0
  7  8  1  0
  8  9  4  0
  8 12  4  0
  9 10  4  0
 10 11  4  0
 11 12  4  0
 12 13  1  0
 13 14  1  0
 13 15  1  6
 15 16  4  0
 15 20  4  0
 16 17  4  0
 17 18  4  0
 17 21  1  0
 18 19  4  0
 19 20  4  0
 23 24  4  0
 24 25  4  0
 25 26  1  0
 26 27  1  0
 27 28  1  0
 28 29  4  0
 29 30  4  0
 30 31  2  0
 30 32  4  0
 32 33  4  0
 33 34  4  0
 34 35  1  0
 34 36  4  0
 36 37  4  0
 37 38  4  0
 38 39  4  0
 25 40  4  0
 40 41  1  0
 39 28  4  0
 38 32  4  0
  2 23  4  0
  2 40  4  0
M  END
$$$$

     RDKit          3D

 41 47  0  0  0  0  0  0  0  0999 V2000
   -7.6410    4.9930    6.8080 C   0  0  0  0  0  0  0  0  0  1  0  0
   -7.7310    4.0530    5.7140 C   0  0  0  0  0  0  0  0  0  2  0  0
   -6.4520    5.6300    6.8680 N   0  0  0  0  0  0  0  0  0  0  0  0
   -6.2260    6.5240    7.8670 N   0  0  0  0  0  0  0  0  0  0  0  0
   -7.1930    6.7500    8.7820 C   0  0  0  0  0  0  0  0  0  0  0  0
   -8.4240    6.1170    8.7580 C   0  0  0  0  0  0  0  0  0  0  0  0
   -9.3950    6.3570    9.7450 N   0  0  0  0  0  0  0  0  0  0  0  0
  -10.5620    5.6840    9.7600 C   0  0  0  0  0  0  0  0  0  0  0  0
  -11.5770    5.6820   10.5960 N   0  0  0  0  0  0  0  0  0  0  0  0
  -12.4690    4.7490   10.1080 N   0  0  0  0  0  0  0  0  0  0  0  0
  -12.0160    4.1880    8.9920 N   0  0  0  0  0  0  0  0  0  0  0  0
  -10.8400    4.7900    8.7610 N   0  0  0  0  0  0  0  0  0  0  0  0
   -9.9950    4.4790    7.6090 C   0  0  0  0  0  0  0  0  0  0  0  0
   -8.6630    5.2070    7.7200 C   0  0  0  0  0  0  0  0  0  0  0  0
  -10.7490    4.8610    6.3730 C   0  0  0  0  0  0  0  0  0  0  0  0
  -11.0350    6.2020    6.1170 C   0  0  0  0  0  0  0  0  0  0  0  0
  -11.7370    6.5580    4.9650 C   0  0  0  0  0  0  0  0  0  0  0  0
  -12.1550    5.5730    4.0710 C   0  0  0  0  0  0  0  0  0  0  0  0
  -11.8700    4.2310    4.3270 C   0  0  0  0  0  0  0  0  0  0  0  0
  -11.1660    3.8760    5.4790 C   0  0  0  0  0  0  0  0  0  0  0  0
  -12.0160    7.8660    4.7150 O   0  0  0  0  0  0  0  0  0  0  0  0
   -6.8990    7.6510    9.7710 O   0  0  0  0  0  0  0  0  0  0  0  0
   -6.8029    3.1547    5.3151 N   0  0  0  0  0  0  0  0  0  0  0  0
   -7.2857    2.4033    4.3351 N   0  0  0  0  0  0  0  0  0  0  0  0
   -8.5500    2.8124    4.1179 C   0  0  0  0  0  0  0  0  0  0  0  0
   -9.6310    2.0657    2.8962 S   0  0  0  0  0  0  0  0  0  0  0  0
  -10.3510    0.8918    4.0927 C   0  0  0  0  0  0  0  0  0  0  0  0
  -11.3330   -0.0049    3.3998 C   0  0  0  0  0  0  0  0  0  0  0  0
  -11.1590   -1.3898    3.3858 C   0  0  0  0  0  0  0  0  0  0  0  0
  -12.1049   -2.1862    2.7367 C   0  0  0  0  0  0  0  0  0  0  0  0
  -11.9434   -3.4389    2.7315 O   0  0  0  0  0  0  0  0  0  0  0  0
  -13.1864   -1.6102    2.1152 N   0  0  0  0  0  0  0  0  0  0  0  0
  -14.1173   -2.3825    1.4658 C   0  0  0  0  0  0  0  0  0  0  0  0
  -15.2109   -1.7948    0.8228 C   0  0  0  0  0  0  0  0  0  0  0  0
  -16.4908   -2.8815   -0.0916 Br  0  0  0  0  0  0  0  0  0  0  0  0
  -15.3607   -0.4100    0.8496 C   0  0  0  0  0  0  0  0  0  0  0  0
  -14.4196    0.3737    1.5127 C   0  0  0  0  0  0  0  0  0  0  0  0
  -13.3316   -0.2388    2.1443 C   0  0  0  0  0  0  0  0  0  0  0  0
  -12.4149    0.5353    2.7833 N   0  0  0  0  0  0  0  0  0  0  0  0
   -8.8942    3.8272    4.9365 N   0  0  0  0  0  0  0  0  0  0  0  0
  -10.1631    4.5593    4.9603 C   0  0  0  0  0  0  0  0  0  0  0  0
  1  3  4  0
  1 14  4  0
  1  2  1  0
  3  4  4  0
  4  5  4  0
  5  6  4  0
  5 22  1  0
  6  7  1  0
  6 14  4  0
  7  8  1  0
  8  9  4  0
  8 12  4  0
  9 10  4  0
 10 11  4  0
 11 12  4  0
 12 13  1  0
 13 14  1  0
 13 15  1  6
 15 16  4  0
 15 20  4  0
 16 17  4  0
 17 18  4  0
 17 21  1  0
 18 19  4  0
 19 20  4  0
 23 24  4  0
 24 25  4  0
 25 26  1  0
 26 27  1  0
 27 28  1  0
 28 29  4  0
 29 30  4  0
 30 31  2  0
 30 32  4  0
 32 33  4  0
 33 34  4  0
 34 35  1  0
 34 36  4  0
 36 37  4  0
 37 38  4  0
 38 39  4  0
 25 40  4  0
 40 41  1  0
 39 28  4  0
 38 32  4  0
  2 23  4  0
  2 40  4  0
M  END
$$$$

     RDKit          3D

 32 37  0  0  0  0  0  0  0  0999 V2000
   -7.6410    4.9930    6.8080 C   0  0  0  0  0  0  0  0  0  1  0  0
   -7.7310    4.0530    5.7140 C   0  0  0  0  0  0  0  0  0  2  0  0
   -6.4520    5.6300    6.8680 N   0  0  0  0  0  0  0  0  0  0  0  0
   -6.2260    6.5240    7.8670 N   0  0  0  0  0  0  0  0  0  0  0  0
   -7.1930    6.7500    8.7820 C   0  0  0  0  0  0  0  0  0  0  0  0
   -8.4240    6.1170    8.7580 C   0  0  0  0  0  0  0  0  0  0  0  0
   -9.3950    6.3570    9.7450 N   0  0  0  0  0  0  0  0  0  0  0  0
  -10.5620    5.6840    9.7600 C   0  0  0  0  0  0  0  0  0  0  0  0
  -11.5770    5.6820   10.5960 N   0  0  0  0  0  0  0  0  0  0  0  0
  -12.4690    4.7490   10.1080 N   0  0  0  0  0  0  0  0  0  0  0  0
  -12.0160    4.1880    8.9920 N   0  0  0  0  0  0  0  0  0  0  0  0
  -10.8400    4.7900    8.7610 N   0  0  0  0  0  0  0  0  0  0  0  0
   -9.9950    4.4790    7.6090 C   0  0  0  0  0  0  0  0  0  0  0  0
   -8.6630    5.2070    7.7200 C   0  0  0  0  0  0  0  0  0  0  0  0
  -10.7490    4.8610    6.3730 C   0  0  0  0  0  0  0  0  0  0  0  0
  -11.0350    6.2020    6.1170 C   0  0  0  0  0  0  0  0  0  0  0  0
  -11.7370    6.5580    4.9650 C   0  0  0  0  0  0  0  0  0  0  0  0
  -12.1550    5.5730    4.0710 C   0  0  0  0  0  0  0  0  0  0  0  0
  -11.8700    4.2310    4.3270 C   0  0  0  0  0  0  0  0  0  0  0  0
  -11.1660    3.8760    5.4790 C   0  0  0  0  0  0  0  0  0  0  0  0
  -12.0160    7.8660    4.7150 O   0  0  0  0  0  0  0  0  0  0  0  0
   -6.8990    7.6510    9.7710 O   0  0  0  0  0  0  0  0  0  0  0  0
   -6.7733    3.0714    5.4114 C   0  0  0  0  0  0  0  0  0  0  0  0
   -6.9400    2.1397    4.3840 C   0  0  0  0  0  0  0  0  0  0  0  0
   -5.9486    1.1928    4.0836 C   0  0  0  0  0  0  0  0  0  0  0  0
   -6.1555    0.2710    3.0522 C   0  0  0  0  0  0  0  0  0  0  0  0
   -7.3474    0.2907    2.3201 C   0  0  0  0  0  0  0  0  0  0  0  0
   -8.3382    1.2337    2.6144 C   0  0  0  0  0  0  0  0  0  0  0  0
   -8.1409    2.1607    3.6428 C   0  0  0  0  0  0  0  0  0  0  0  0
   -9.0824    3.0577    3.9163 O   0  0  0  0  0  0  0  0  0  0  0  0
   -8.9557    3.9628    4.8826 C   0  0  0  0  0  0  0  0  0  0  0  0
   -9.8844    4.7966    5.0577 O   0  0  0  0  0  0  0  0  0  0  0  0
  1  3  4  0
  1 14  4  0
  1  2  1  0
  3  4  4  0
  4  5  4  0
  5  6  4  0
  5 22  1  0
  6  7  1  0
  6 14  4  0
  7  8  1  0
  8  9  4  0
  8 12  4  0
  9 10  4  0
 10 11  4  0
 11 12  4  0
 12 13  1  0
 13 14  1  0
 13 15  1  6
 15 16  4  0
 15 20  4  0
 16 17  4  0
 17 18  4  0
 17 21  1  0
 18 19  4  0
 19 20  4  0
 23 24  4  0
 24 25  4  0
 25 26  4  0
 26 27  4  0
 27 28  4  0
 28 29  4  0
 29 30  4  0
 30 31  4  0
 31 32  2  0
 29 24  4  0
  2 23  4  0
  2 31  4  0
M  END
$$$$

     RDKit          3D

 43 48  0  0  0  0  0  0  0  0999 V2000
   -7.6410    4.9930    6.8080 C   0  0  0  0  0  0  0  0  0  1  0  0
   -7.7310    4.0530    5.7140 C   0  0  0  0  0  0  0  0  0  2  0  0
   -6.4520    5.6300    6.8680 N   0  0  0  0  0  0  0  0  0  0  0  0
   -6.2260    6.5240    7.8670 N   0  0  0  0  0  0  0  0  0  0  0  0
   -7.1930    6.7500    8.7820 C   0  0  0  0  0  0  0  0  0  0  0  0
   -8.4240    6.1170    8.7580 C   0  0  0  0  0  0  0  0  0  0  0  0
   -9.3950    6.3570    9.7450 N   0  0  0  0  0  0  0  0  0  0  0  0
  -10.5620    5.6840    9.7600 C   0  0  0  0  0  0  0  0  0  0  0  0
  -11.5770    5.6820   10.5960 N   0  0  0  0  0  0  0  0  0  0  0  0
  -12.4690    4.7490   10.1080 N   0  0  0  0  0  0  0  0  0  0  0  0
  -12.0160    4.1880    8.9920 N   0  0  0  0  0  0  0  0  0  0  0  0
  -10.8400    4.7900    8.7610 N   0  0  0  0  0  0  0  0  0  0  0  0
   -9.9950    4.4790    7.6090 C   0  0  0  0  0  0  0  0  0  0  0  0
   -8.6630    5.2070    7.7200 C   0  0  0  0  0  0  0  0  0  0  0  0
  -10.7490    4.8610    6.3730 C   0  0  0  0  0  0  0  0  0  0  0  0
  -11.0350    6.2020    6.1170 C   0  0  0  0  0  0  0  0  0  0  0  0
  -11.7370    6.5580    4.9650 C   0  0  0  0  0  0  0  0  0  0  0  0
  -12.1550    5.5730    4.0710 C   0  0  0  0  0  0  0  0  0  0  0  0
  -11.8700    4.2310    4.3270 C   0  0  0  0  0  0  0  0  0  0  0  0
  -11.1660    3.8760    5.4790 C   0  0  0  0  0  0  0  0  0  0  0  0
  -12.0160    7.8660    4.7150 O   0  0  0  0  0  0  0  0  0  0  0  0
   -6.8990    7.6510    9.7710 O   0  0  0  0  0  0  0  0  0  0  0  0
   -6.8601    3.0660    5.4028 N   0  0  0  0  0  0  0  0  0  0  0  0
   -7.3254    2.3551    4.3860 N   0  0  0  0  0  0  0  0  0  0  0  0
   -8.5206    2.8800    4.0577 C   0  0  0  0  0  0  0  0  0  0  0  0
   -9.5526    2.2283    2.7421 S   0  0  0  0  0  0  0  0  0  0  0  0
   -8.7626    3.2363    1.4432 C   0  0  0  0  0  0  0  0  0  0  0  0
   -9.6195    3.2312    0.2132 C   0  0  0  0  0  0  0  0  0  0  0  0
   -9.8962    2.1279   -0.3350 O   0  0  0  0  0  0  0  0  0  0  0  0
  -10.0973    4.4711   -0.3387 N   0  0  0  0  0  0  0  0  0  0  0  0
  -11.2941    4.5890   -1.1927 C   0  0  0  0  0  0  0  0  0  0  0  0
  -11.7120    6.0694   -1.4388 C   0  0  0  0  0  0  0  0  0  0  0  0
  -10.6196    7.1604   -1.6158 C   0  0  0  0  0  0  0  0  0  0  0  0
   -9.3136    6.7965   -2.3481 C   0  0  0  0  0  0  0  0  0  0  0  0
   -9.4406    6.5629   -3.8591 C   0  0  0  0  0  0  0  0  0  0  0  0
  -10.3354    5.3895   -4.2746 C   0  0  0  0  0  0  0  0  0  0  0  0
  -10.0936    4.0866   -3.4826 C   0  0  0  0  0  0  0  0  0  0  0  0
  -11.2356    3.7591   -2.5055 C   0  0  0  0  0  0  0  0  0  0  0  0
   -8.8409    3.9277    4.8449 N   0  0  0  0  0  0  0  0  0  0  0  0
  -10.0160    4.8023    4.7459 C   0  0  0  0  0  0  0  0  0  0  0  0
   -9.6007    6.2232    4.5170 C   0  0  0  0  0  0  0  0  0  0  0  0
   -9.8836    7.1122    5.3632 O   0  0  0  0  0  0  0  0  0  0  0  0
   -8.8753    6.5645    3.3779 O   0  0  0  0  0  0  0  0  0  0  0  0
  1  3  4  0
  1 14  4  0
  1  2  1  0
  3  4  4  0
  4  5  4  0
  5  6  4  0
  5 22  1  0
  6  7  1  0
  6 14  4  0
  7  8  1  0
  8  9  4  0
  8 12  4  0
  9 10  4  0
 10 11  4  0
 11 12  4  0
 12 13  1  0
 13 14  1  0
 13 15  1  6
 15 16  4  0
 15 20  4  0
 16 17  4  0
 17 18  4  0
 17 21  1  0
 18 19  4  0
 19 20  4  0
 23 24  4  0
 24 25  4  0
 25 26  1  0
 26 27  1  0
 27 28  1  0
 28 29  2  0
 28 30  1  0
 30 31  1  0
 31 32  1  0
 32 33  1  0
 33 34  1  0
 34 35  1  0
 35 36  1  0
 36 37  1  0
 37 38  1  0
 25 39  4  0
 39 40  1  0
 40 41  1  0
 41 42  2  0
 41 43  1  0
 38 31  1  0
  2 23  4  0
  2 39  4  0
M  CHG  1  43  -1
M  END
$$$$

     RDKit          3D

 46 52  0  0  0  0  0  0  0  0999 V2000
   -7.6410    4.9930    6.8080 C   0  0  0  0  0  0  0  0  0  1  0  0
   -7.7310    4.0530    5.7140 C   0  0  0  0  0  0  0  0  0  2  0  0
   -6.4520    5.6300    6.8680 N   0  0  0  0  0  0  0  0  0  0  0  0
   -6.2260    6.5240    7.8670 N   0  0  0  0  0  0  0  0  0  0  0  0
   -7.1930    6.7500    8.7820 C   0  0  0  0  0  0  0  0  0  0  0  0
   -8.4240    6.1170    8.7580 C   0  0  0  0  0  0  0  0  0  0  0  0
   -9.3950    6.3570    9.7450 N   0  0  0  0  0  0  0  0  0  0  0  0
  -10.5620    5.6840    9.7600 C   0  0  0  0  0  0  0  0  0  0  0  0
  -11.5770    5.6820   10.5960 N   0  0  0  0  0  0  0  0  0  0  0  0
  -12.4690    4.7490   10.1080 N   0  0  0  0  0  0  0  0  0  0  0  0
  -12.0160    4.1880    8.9920 N   0  0  0  0  0  0  0  0  0  0  0  0
  -10.8400    4.7900    8.7610 N   0  0  0  0  0  0  0  0  0  0  0  0
   -9.9950    4.4790    7.6090 C   0  0  0  0  0  0  0  0  0  0  0  0
   -8.6630    5.2070    7.7200 C   0  0  0  0  0  0  0  0  0  0  0  0
  -10.7490    4.8610    6.3730 C   0  0  0  0  0  0  0  0  0  0  0  0
  -11.0350    6.2020    6.1170 C   0  0  0  0  0  0  0  0  0  0  0  0
  -11.7370    6.5580    4.9650 C   0  0  0  0  0  0  0  0  0  0  0  0
  -12.1550    5.5730    4.0710 C   0  0  0  0  0  0  0  0  0  0  0  0
  -11.8700    4.2310    4.3270 C   0  0  0  0  0  0  0  0  0  0  0  0
  -11.1660    3.8760    5.4790 C   0  0  0  0  0  0  0  0  0  0  0  0
  -12.0160    7.8660    4.7150 O   0  0  0  0  0  0  0  0  0  0  0  0
   -6.8990    7.6510    9.7710 O   0  0  0  0  0  0  0  0  0  0  0  0
   -6.8629    3.0602    5.4214 N   0  0  0  0  0  0  0  0  0  0  0  0
   -7.3170    2.3546    4.3978 N   0  0  0  0  0  0  0  0  0  0  0  0
   -8.5038    2.8841    4.0515 C   0  0  0  0  0  0  0  0  0  0  0  0
   -9.5086    2.2360    2.7105 S   0  0  0  0  0  0  0  0  0  0  0  0
  -10.5563    1.1892    3.7885 C   0  0  0  0  0  0  0  0  0  0  0  0
  -11.7926    0.7242    3.0216 C   0  0  0  0  0  0  0  0  0  0  0  0
   -9.7865    0.0251    4.3692 C   0  0  0  0  0  0  0  0  0  0  0  0
   -9.9753   -0.2798    5.5776 O   0  0  0  0  0  0  0  0  0  0  0  0
   -8.8103   -0.7053    3.6049 N   0  0  0  0  0  0  0  0  0  0  0  0
   -7.4855   -0.9925    4.0289 C   0  0  0  0  0  0  0  0  0  0  0  0
   -6.9084   -0.7071    5.2723 C   0  0  0  0  0  0  0  0  0  0  0  0
   -5.5592   -1.0397    5.4756 C   0  0  0  0  0  0  0  0  0  0  0  0
   -4.8120   -1.6338    4.4408 C   0  0  0  0  0  0  0  0  0  0  0  0
   -5.4114   -1.9006    3.2000 C   0  0  0  0  0  0  0  0  0  0  0  0
   -6.7561   -1.5693    3.0247 C   0  0  0  0  0  0  0  0  0  0  0  0
   -7.5797   -1.7169    1.7944 C   0  0  0  0  0  0  0  0  0  0  0  0
   -8.9872   -1.2275    2.2432 C   0  0  0  0  0  0  0  0  0  0  0  0
   -9.9928   -2.3844    2.2488 C   0  0  0  0  0  0  0  0  0  0  0  0
   -8.8267    3.9398    4.8291 N   0  0  0  0  0  0  0  0  0  0  0  0
   -9.9913    4.8297    4.7006 C   0  0  0  0  0  0  0  0  0  0  0  0
   -9.5793    6.2726    4.3599 C   0  0  0  0  0  0  0  0  0  0  0  0
   -8.9169    6.4149    3.0192 C   0  0  0  0  0  0  0  0  0  0  0  0
   -8.3993    7.5167    2.7003 O   0  0  0  0  0  0  0  0  0  0  0  0
   -8.8714    5.3588    2.1170 O   0  0  0  0  0  0  0  0  0  0  0  0
  1  3  4  0
  1 14  4  0
  1  2  1  0
  3  4  4  0
  4  5  4  0
  5  6  4  0
  5 22  1  0
  6  7  1  0
  6 14  4  0
  7  8  1  0
  8  9  4  0
  8 12  4  0
  9 10  4  0
 10 11  4  0
 11 12  4  0
 12 13  1  0
 13 14  1  0
 13 15  1  6
 15 16  4  0
 15 20  4  0
 16 17  4  0
 17 18  4  0
 17 21  1  0
 18 19  4  0
 19 20  4  0
 23 24  4  0
 24 25  4  0
 25 26  1  0
 26 27  1  0
 27 28  1  0
 27 29  1  0
 29 30  2  0
 29 31  1  0
 31 32  1  0
 32 33  4  0
 33 34  4  0
 34 35  4  0
 35 36  4  0
 36 37  4  0
 37 38  1  0
 38 39  1  0
 39 40  1  0
 25 41  4  0
 41 42  1  0
 42 43  1  0
 43 44  1  0
 44 45  2  0
 44 46  1  0
 39 31  1  0
 37 32  4  0
  2 23  4  0
  2 41  4  0
M  CHG  1  46  -1
M  END
$$$$

     RDKit          3D

 44 49  0  0  0  0  0  0  0  0999 V2000
   -7.6410    4.9930    6.8080 C   0  0  0  0  0  0  0  0  0  1  0  0
   -7.7310    4.0530    5.7140 C   0  0  0  0  0  0  0  0  0  2  0  0
   -6.4520    5.6300    6.8680 N   0  0  0  0  0  0  0  0  0  0  0  0
   -6.2260    6.5240    7.8670 N   0  0  0  0  0  0  0  0  0  0  0  0
   -7.1930    6.7500    8.7820 C   0  0  0  0  0  0  0  0  0  0  0  0
   -8.4240    6.1170    8.7580 C   0  0  0  0  0  0  0  0  0  0  0  0
   -9.3950    6.3570    9.7450 N   0  0  0  0  0  0  0  0  0  0  0  0
  -10.5620    5.6840    9.7600 C   0  0  0  0  0  0  0  0  0  0  0  0
  -11.5770    5.6820   10.5960 N   0  0  0  0  0  0  0  0  0  0  0  0
  -12.4690    4.7490   10.1080 N   0  0  0  0  0  0  0  0  0  0  0  0
  -12.0160    4.1880    8.9920 N   0  0  0  0  0  0  0  0  0  0  0  0
  -10.8400    4.7900    8.7610 N   0  0  0  0  0  0  0  0  0  0  0  0
   -9.9950    4.4790    7.6090 C   0  0  0  0  0  0  0  0  0  0  0  0
   -8.6630    5.2070    7.7200 C   0  0  0  0  0  0  0  0  0  0  0  0
  -10.7490    4.8610    6.3730 C   0  0  0  0  0  0  0  0  0  0  0  0
  -11.0350    6.2020    6.1170 C   0  0  0  0  0  0  0  0  0  0  0  0
  -11.7370    6.5580    4.9650 C   0  0  0  0  0  0  0  0  0  0  0  0
  -12.1550    5.5730    4.0710 C   0  0  0  0  0  0  0  0  0  0  0  0
  -11.8700    4.2310    4.3270 C   0  0  0  0  0  0  0  0  0  0  0  0
  -11.1660    3.8760    5.4790 C   0  0  0  0  0  0  0  0  0  0  0  0
  -12.0160    7.8660    4.7150 O   0  0  0  0  0  0  0  0  0  0  0  0
   -6.8990    7.6510    9.7710 O   0  0  0  0  0  0  0  0  0  0  0  0
   -7.0350    2.8661    5.4952 C   0  0  0  0  0  0  0  0  0  0  0  0
   -7.4918    2.2453    4.3845 N   0  0  0  0  0  0  0  0  0  0  0  0
   -7.0158    1.0077    3.8168 C   0  0  0  0  0  0  0  0  0  0  0  0
   -5.7796    0.4501    4.2049 C   0  0  0  0  0  0  0  0  0  0  0  0
   -5.3270   -0.7403    3.6266 C   0  0  0  0  0  0  0  0  0  0  0  0
   -6.0930   -1.3815    2.6510 C   0  0  0  0  0  0  0  0  0  0  0  0
   -7.3159   -0.8376    2.2550 C   0  0  0  0  0  0  0  0  0  0  0  0
   -7.7809    0.3438    2.8377 C   0  0  0  0  0  0  0  0  0  0  0  0
   -8.4867    2.9511    3.8617 N   0  0  0  0  0  0  0  0  0  0  0  0
   -8.6872    4.0336    4.6375 C   0  0  0  0  0  0  0  0  0  0  0  0
   -9.6442    5.0948    4.2946 C   0  0  0  0  0  0  0  0  0  0  0  0
   -9.8125    6.0816    5.0619 O   0  0  0  0  0  0  0  0  0  0  0  0
  -10.3433    5.0085    3.0865 O   0  0  0  0  0  0  0  0  0  0  0  0
  -11.2582    6.0079    2.6533 C   0  0  0  0  0  0  0  0  0  0  0  0
  -11.7770    5.6471    1.2893 C   0  0  0  0  0  0  0  0  0  0  0  0
  -10.9923    5.7586    0.3084 O   0  0  0  0  0  0  0  0  0  0  0  0
  -13.1202    5.1856    1.0525 N   0  0  0  0  0  0  0  0  0  0  0  0
  -14.0475    4.7195    2.0972 C   0  0  0  0  0  0  0  0  0  0  0  0
  -13.5296    3.4159    2.7268 C   0  0  0  0  0  0  0  0  0  0  0  0
  -15.5056    4.5638    1.5673 C   0  0  0  0  0  0  0  0  0  0  0  0
  -15.6646    3.5167    0.4471 C   0  0  0  0  0  0  0  0  0  0  0  0
  -16.0747    5.9183    1.1148 C   0  0  0  0  0  0  0  0  0  0  0  0
  1  3  4  0
  1 14  4  0
  1  2  1  0
  3  4  4  0
  4  5  4  0
  5  6  4  0
  5 22  1  0
  6  7  1  0
  6 14  4  0
  7  8  1  0
  8  9  4  0
  8 12  4  0
  9 10  4  0
 10 11  4  0
 11 12  4  0
 12 13  1  0
 13 14  1  0
 13 15  1  6
 15 16  4  0
 15 20  4  0
 16 17  4  0
 17 18  4  0
 17 21  1  0
 18 19  4  0
 19 20  4  0
 23 24  4  0
 24 25  1  0
 25 26  4  0
 26 27  4  0
 27 28  4  0
 28 29  4  0
 29 30  4  0
 24 31  4  0
 31 32  4  0
 32 33  1  0
 33 34  2  0
 33 35  1  0
 35 36  1  0
 36 37  1  0
 37 38  2  0
 37 39  1  0
 39 40  1  0
 40 41  1  0
 40 42  1  0
 42 43  1  0
 42 44  1  0
 30 25  4  0
  2 23  4  0
  2 32  4  0
M  END
$$$$

     RDKit          3D

 43 48  0  0  0  0  0  0  0  0999 V2000
   -7.6410    4.9930    6.8080 C   0  0  0  0  0  0  0  0  0  1  0  0
   -7.7310    4.0530    5.7140 C   0  0  0  0  0  0  0  0  0  2  0  0
   -6.4520    5.6300    6.8680 N   0  0  0  0  0  0  0  0  0  0  0  0
   -6.2260    6.5240    7.8670 N   0  0  0  0  0  0  0  0  0  0  0  0
   -7.1930    6.7500    8.7820 C   0  0  0  0  0  0  0  0  0  0  0  0
   -8.4240    6.1170    8.7580 C   0  0  0  0  0  0  0  0  0  0  0  0
   -9.3950    6.3570    9.7450 N   0  0  0  0  0  0  0  0  0  0  0  0
  -10.5620    5.6840    9.7600 C   0  0  0  0  0  0  0  0  0  0  0  0
  -11.5770    5.6820   10.5960 N   0  0  0  0  0  0  0  0  0  0  0  0
  -12.4690    4.7490   10.1080 N   0  0  0  0  0  0  0  0  0  0  0  0
  -12.0160    4.1880    8.9920 N   0  0  0  0  0  0  0  0  0  0  0  0
  -10.8400    4.7900    8.7610 N   0  0  0  0  0  0  0  0  0  0  0  0
   -9.9950    4.4790    7.6090 C   0  0  0  0  0  0  0  0  0  0  0  0
   -8.6630    5.2070    7.7200 C   0  0  0  0  0  0  0  0  0  0  0  0
  -10.7490    4.8610    6.3730 C   0  0  0  0  0  0  0  0  0  0  0  0
  -11.0350    6.2020    6.1170 C   0  0  0  0  0  0  0  0  0  0  0  0
  -11.7370    6.5580    4.9650 C   0  0  0  0  0  0  0  0  0  0  0  0
  -12.1550    5.5730    4.0710 C   0  0  0  0  0  0  0  0  0  0  0  0
  -11.8700    4.2310    4.3270 C   0  0  0  0  0  0  0  0  0  0  0  0
  -11.1660    3.8760    5.4790 C   0  0  0  0  0  0  0  0  0  0  0  0
  -12.0160    7.8660    4.7150 O   0  0  0  0  0  0  0  0  0  0  0  0
   -6.8990    7.6510    9.7710 O   0  0  0  0  0  0  0  0  0  0  0  0
   -6.7683    3.2353    5.2466 N   0  0  0  0  0  0  0  0  0  0  0  0
   -7.2559    2.4461    4.3026 N   0  0  0  0  0  0  0  0  0  0  0  0
   -8.5608    2.7478    4.1783 C   0  0  0  0  0  0  0  0  0  0  0  0
   -9.6700    1.8748    3.0671 S   0  0  0  0  0  0  0  0  0  0  0  0
   -9.9921    0.5461    4.2751 C   0  0  0  0  0  0  0  0  0  0  0  0
  -10.7649   -0.5585    3.6290 C   0  0  0  0  0  0  0  0  0  0  0  0
  -11.8884   -0.8901    4.1004 O   0  0  0  0  0  0  0  0  0  0  0  0
  -10.2020   -1.2696    2.5160 N   0  0  0  0  0  0  0  0  0  0  0  0
  -10.9399   -2.2877    1.7607 C   0  0  0  0  0  0  0  0  0  0  0  0
  -11.8864   -1.6216    0.7367 C   0  0  0  0  0  0  0  0  0  0  0  0
  -13.2120   -1.2473    1.3505 C   0  0  0  0  0  0  0  0  0  0  0  0
  -13.5501    0.0999    1.5704 C   0  0  0  0  0  0  0  0  0  0  0  0
  -14.7968    0.4321    2.1148 C   0  0  0  0  0  0  0  0  0  0  0  0
  -15.7138   -0.5772    2.4383 C   0  0  0  0  0  0  0  0  0  0  0  0
  -15.3882   -1.9158    2.2133 C   0  0  0  0  0  0  0  0  0  0  0  0
  -14.1427   -2.2529    1.6712 C   0  0  0  0  0  0  0  0  0  0  0  0
   -9.9628   -3.2173    1.0653 C   0  0  0  0  0  0  0  0  0  0  0  0
   -9.0556   -2.7377   -0.0350 C   0  0  0  0  0  0  0  0  0  0  0  0
   -9.8902   -4.3871    1.4190 O   0  0  0  0  0  0  0  0  0  0  0  0
   -8.9242    3.7386    5.0137 N   0  0  0  0  0  0  0  0  0  0  0  0
  -10.2461    4.3493    5.1286 C   0  0  0  0  0  0  0  0  0  0  0  0
  1  3  4  0
  1 14  4  0
  1  2  1  0
  3  4  4  0
  4  5  4  0
  5  6  4  0
  5 22  1  0
  6  7  1  0
  6 14  4  0
  7  8  1  0
  8  9  4  0
  8 12  4  0
  9 10  4  0
 10 11  4  0
 11 12  4  0
 12 13  1  0
 13 14  1  0
 13 15  1  6
 15 16  4  0
 15 20  4  0
 16 17  4  0
 17 18  4  0
 17 21  1  0
 18 19  4  0
 19 20  4  0
 23 24  4  0
 24 25  4  0
 25 26  1  0
 26 27  1  0
 27 28  1  0
 28 29  2  0
 28 30  1  0
 30 31  1  0
 31 32  1  0
 32 33  1  0
 33 34  4  0
 34 35  4  0
 35 36  4  0
 36 37  4  0
 37 38  4  0
 31 39  1  0
 39 40  1  0
 39 41  2  0
 25 42  4  0
 42 43  1  0
 38 33  4  0
  2 23  4  0
  2 42  4  0
M  END
$$$$

     RDKit          3D

 43 48  0  0  0  0  0  0  0  0999 V2000
   -7.6410    4.9930    6.8080 C   0  0  0  0  0  0  0  0  0  1  0  0
   -7.7310    4.0530    5.7140 C   0  0  0  0  0  0  0  0  0  2  0  0
   -6.4520    5.6300    6.8680 N   0  0  0  0  0  0  0  0  0  0  0  0
   -6.2260    6.5240    7.8670 N   0  0  0  0  0  0  0  0  0  0  0  0
   -7.1930    6.7500    8.7820 C   0  0  0  0  0  0  0  0  0  0  0  0
   -8.4240    6.1170    8.7580 C   0  0  0  0  0  0  0  0  0  0  0  0
   -9.3950    6.3570    9.7450 N   0  0  0  0  0  0  0  0  0  0  0  0
  -10.5620    5.6840    9.7600 C   0  0  0  0  0  0  0  0  0  0  0  0
  -11.5770    5.6820   10.5960 N   0  0  0  0  0  0  0  0  0  0  0  0
  -12.4690    4.7490   10.1080 N   0  0  0  0  0  0  0  0  0  0  0  0
  -12.0160    4.1880    8.9920 N   0  0  0  0  0  0  0  0  0  0  0  0
  -10.8400    4.7900    8.7610 N   0  0  0  0  0  0  0  0  0  0  0  0
   -9.9950    4.4790    7.6090 C   0  0  0  0  0  0  0  0  0  0  0  0
   -8.6630    5.2070    7.7200 C   0  0  0  0  0  0  0  0  0  0  0  0
  -10.7490    4.8610    6.3730 C   0  0  0  0  0  0  0  0  0  0  0  0
  -11.0350    6.2020    6.1170 C   0  0  0  0  0  0  0  0  0  0  0  0
  -11.7370    6.5580    4.9650 C   0  0  0  0  0  0  0  0  0  0  0  0
  -12.1550    5.5730    4.0710 C   0  0  0  0  0  0  0  0  0  0  0  0
  -11.8700    4.2310    4.3270 C   0  0  0  0  0  0  0  0  0  0  0  0
  -11.1660    3.8760    5.4790 C   0  0  0  0  0  0  0  0  0  0  0  0
  -12.0160    7.8660    4.7150 O   0  0  0  0  0  0  0  0  0  0  0  0
   -6.8990    7.6510    9.7710 O   0  0  0  0  0  0  0  0  0  0  0  0
   -6.7714    3.2304    5.2444 N   0  0  0  0  0  0  0  0  0  0  0  0
   -7.2437    2.4961    4.2474 N   0  0  0  0  0  0  0  0  0  0  0  0
   -8.5381    2.8320    4.0934 C   0  0  0  0  0  0  0  0  0  0  0  0
   -9.5978    2.1079    2.8314 S   0  0  0  0  0  0  0  0  0  0  0  0
   -9.8634    0.5430    3.7446 C   0  0  0  0  0  0  0  0  0  0  0  0
  -10.8896    0.6662    4.8397 C   0  0  0  0  0  0  0  0  0  0  0  0
  -11.6326    1.6837    4.8924 O   0  0  0  0  0  0  0  0  0  0  0  0
  -11.0739   -0.3767    5.8149 N   0  0  0  0  0  0  0  0  0  0  0  0
  -10.2513   -1.5912    5.8756 C   0  0  0  0  0  0  0  0  0  0  0  0
  -10.9693   -2.6755    6.7024 C   0  0  0  0  0  0  0  0  0  0  0  0
  -10.2400   -3.9980    6.6471 C   0  0  0  0  0  0  0  0  0  0  0  0
   -9.5843   -4.5005    7.7852 C   0  0  0  0  0  0  0  0  0  0  0  0
   -8.9094   -5.7251    7.7262 C   0  0  0  0  0  0  0  0  0  0  0  0
   -8.8887   -6.4576    6.5357 C   0  0  0  0  0  0  0  0  0  0  0  0
   -9.5397   -5.9664    5.4002 C   0  0  0  0  0  0  0  0  0  0  0  0
  -10.2145   -4.7428    5.4535 C   0  0  0  0  0  0  0  0  0  0  0  0
   -8.9052   -1.2710    6.4909 C   0  0  0  0  0  0  0  0  0  0  0  0
   -7.6285   -1.7819    5.8856 C   0  0  0  0  0  0  0  0  0  0  0  0
   -8.8512   -0.6063    7.5142 O   0  0  0  0  0  0  0  0  0  0  0  0
   -8.9111    3.7896    4.9686 N   0  0  0  0  0  0  0  0  0  0  0  0
  -10.1893    4.4992    5.0295 C   0  0  0  0  0  0  0  0  0  0  0  0
  1  3  4  0
  1 14  4  0
  1  2  1  0
  3  4  4  0
  4  5  4  0
  5  6  4  0
  5 22  1  0
  6  7  1  0
  6 14  4  0
  7  8  1  0
  8  9  4  0
  8 12  4  0
  9 10  4  0
 10 11  4  0
 11 12  4  0
 12 13  1  0
 13 14  1  0
 13 15  1  6
 15 16  4  0
 15 20  4  0
 16 17  4  0
 17 18  4  0
 17 21  1  0
 18 19  4  0
 19 20  4  0
 23 24  4  0
 24 25  4  0
 25 26  1  0
 26 27  1  0
 27 28  1  0
 28 29  2  0
 28 30  1  0
 30 31  1  0
 31 32  1  0
 32 33  1  0
 33 34  4  0
 34 35  4  0
 35 36  4  0
 36 37  4  0
 37 38  4  0
 31 39  1  0
 39 40  1  0
 39 41  2  0
 25 42  4  0
 42 43  1  0
 38 33  4  0
  2 23  4  0
  2 42  4  0
M  END
$$$$

     RDKit          3D

 43 48  0  0  0  0  0  0  0  0999 V2000
   -7.6410    4.9930    6.8080 C   0  0  0  0  0  0  0  0  0  1  0  0
   -7.7310    4.0530    5.7140 C   0  0  0  0  0  0  0  0  0  2  0  0
   -6.4520    5.6300    6.8680 N   0  0  0  0  0  0  0  0  0  0  0  0
   -6.2260    6.5240    7.8670 N   0  0  0  0  0  0  0  0  0  0  0  0
   -7.1930    6.7500    8.7820 C   0  0  0  0  0  0  0  0  0  0  0  0
   -8.4240    6.1170    8.7580 C   0  0  0  0  0  0  0  0  0  0  0  0
   -9.3950    6.3570    9.7450 N   0  0  0  0  0  0  0  0  0  0  0  0
  -10.5620    5.6840    9.7600 C   0  0  0  0  0  0  0  0  0  0  0  0
  -11.5770    5.6820   10.5960 N   0  0  0  0  0  0  0  0  0  0  0  0
  -12.4690    4.7490   10.1080 N   0  0  0  0  0  0  0  0  0  0  0  0
  -12.0160    4.1880    8.9920 N   0  0  0  0  0  0  0  0  0  0  0  0
  -10.8400    4.7900    8.7610 N   0  0  0  0  0  0  0  0  0  0  0  0
   -9.9950    4.4790    7.6090 C   0  0  0  0  0  0  0  0  0  0  0  0
   -8.6630    5.2070    7.7200 C   0  0  0  0  0  0  0  0  0  0  0  0
  -10.7490    4.8610    6.3730 C   0  0  0  0  0  0  0  0  0  0  0  0
  -11.0350    6.2020    6.1170 C   0  0  0  0  0  0  0  0  0  0  0  0
  -11.7370    6.5580    4.9650 C   0  0  0  0  0  0  0  0  0  0  0  0
  -12.1550    5.5730    4.0710 C   0  0  0  0  0  0  0  0  0  0  0  0
  -11.8700    4.2310    4.3270 C   0  0  0  0  0  0  0  0  0  0  0  0
  -11.1660    3.8760    5.4790 C   0  0  0  0  0  0  0  0  0  0  0  0
  -12.0160    7.8660    4.7150 O   0  0  0  0  0  0  0  0  0  0  0  0
   -6.8990    7.6510    9.7710 O   0  0  0  0  0  0  0  0  0  0  0  0
   -6.7896    3.1876    5.2862 N   0  0  0  0  0  0  0  0  0  0  0  0
   -7.2691    2.4406    4.3028 N   0  0  0  0  0  0  0  0  0  0  0  0
   -8.5465    2.8181    4.1134 C   0  0  0  0  0  0  0  0  0  0  0  0
   -9.6220    2.0768    2.8811 S   0  0  0  0  0  0  0  0  0  0  0  0
  -10.3279    0.8398    4.0246 C   0  0  0  0  0  0  0  0  0  0  0  0
   -9.3081   -0.2022    4.3917 C   0  0  0  0  0  0  0  0  0  0  0  0
   -8.8625   -0.2240    5.5702 O   0  0  0  0  0  0  0  0  0  0  0  0
   -8.8140   -1.1632    3.4432 N   0  0  0  0  0  0  0  0  0  0  0  0
   -9.4512   -1.4393    2.1474 C   0  0  0  0  0  0  0  0  0  0  0  0
   -8.5337   -2.2766    1.2264 C   0  0  0  0  0  0  0  0  0  0  0  0
   -8.2816   -3.6850    1.7151 C   0  0  0  0  0  0  0  0  0  0  0  0
   -9.1832   -4.7167    1.3997 C   0  0  0  0  0  0  0  0  0  0  0  0
   -8.9433   -6.0228    1.8366 C   0  0  0  0  0  0  0  0  0  0  0  0
   -7.7935   -6.3141    2.5748 C   0  0  0  0  0  0  0  0  0  0  0  0
   -6.8779   -5.3012    2.8702 C   0  0  0  0  0  0  0  0  0  0  0  0
   -7.1147   -3.9932    2.4361 C   0  0  0  0  0  0  0  0  0  0  0  0
  -10.8138   -2.0793    2.3263 C   0  0  0  0  0  0  0  0  0  0  0  0
  -11.1173   -3.0155    3.4628 C   0  0  0  0  0  0  0  0  0  0  0  0
  -11.6968   -1.8305    1.5194 O   0  0  0  0  0  0  0  0  0  0  0  0
   -8.9013    3.8109    4.9520 N   0  0  0  0  0  0  0  0  0  0  0  0
  -10.1892    4.4993    5.0208 C   0  0  0  0  0  0  0  0  0  0  0  0
  1  3  4  0
  1 14  4  0
  1  2  1  0
  3  4  4  0
  4  5  4  0
  5  6  4  0
  5 22  1  0
  6  7  1  0
  6 14  4  0
  7  8  1  0
  8  9  4  0
  8 12  4  0
  9 10  4  0
 10 11  4  0
 11 12  4  0
 12 13  1  0
 13 14  1  0
 13 15  1  6
 15 16  4  0
 15 20  4  0
 16 17  4  0
 17 18  4  0
 17 21  1  0
 18 19  4  0
 19 20  4  0
 23 24  4  0
 24 25  4  0
 25 26  1  0
 26 27  1  0
 27 28  1  0
 28 29  2  0
 28 30  1  0
 30 31  1  0
 31 32  1  0
 32 33  1  0
 33 34  4  0
 34 35  4  0
 35 36  4  0
 36 37  4  0
 37 38  4  0
 31 39  1  0
 39 40  1  0
 39 41  2  0
 25 42  4  0
 42 43  1  0
 38 33  4  0
  2 23  4  0
  2 42  4  0
M  END
$$$$

     RDKit          3D

 50 57  0  0  0  0  0  0  0  0999 V2000
   -7.6410    4.9930    6.8080 C   0  0  0  0  0  0  0  0  0  1  0  0
   -7.7310    4.0530    5.7140 C   0  0  0  0  0  0  0  0  0  2  0  0
   -6.4520    5.6300    6.8680 N   0  0  0  0  0  0  0  0  0  0  0  0
   -6.2260    6.5240    7.8670 N   0  0  0  0  0  0  0  0  0  0  0  0
   -7.1930    6.7500    8.7820 C   0  0  0  0  0  0  0  0  0  0  0  0
   -8.4240    6.1170    8.7580 C   0  0  0  0  0  0  0  0  0  0  0  0
   -9.3950    6.3570    9.7450 N   0  0  0  0  0  0  0  0  0  0  0  0
  -10.5620    5.6840    9.7600 C   0  0  0  0  0  0  0  0  0  0  0  0
  -11.5770    5.6820   10.5960 N   0  0  0  0  0  0  0  0  0  0  0  0
  -12.4690    4.7490   10.1080 N   0  0  0  0  0  0  0  0  0  0  0  0
  -12.0160    4.1880    8.9920 N   0  0  0  0  0  0  0  0  0  0  0  0
  -10.8400    4.7900    8.7610 N   0  0  0  0  0  0  0  0  0  0  0  0
   -9.9950    4.4790    7.6090 C   0  0  0  0  0  0  0  0  0  0  0  0
   -8.6630    5.2070    7.7200 C   0  0  0  0  0  0  0  0  0  0  0  0
  -10.7490    4.8610    6.3730 C   0  0  0  0  0  0  0  0  0  0  0  0
  -11.0350    6.2020    6.1170 C   0  0  0  0  0  0  0  0  0  0  0  0
  -11.7370    6.5580    4.9650 C   0  0  0  0  0  0  0  0  0  0  0  0
  -12.1550    5.5730    4.0710 C   0  0  0  0  0  0  0  0  0  0  0  0
  -11.8700    4.2310    4.3270 C   0  0  0  0  0  0  0  0  0  0  0  0
  -11.1660    3.8760    5.4790 C   0  0  0  0  0  0  0  0  0  0  0  0
  -12.0160    7.8660    4.7150 O   0  0  0  0  0  0  0  0  0  0  0  0
   -6.8990    7.6510    9.7710 O   0  0  0  0  0  0  0  0  0  0  0  0
   -6.8431    3.0879    5.3877 N   0  0  0  0  0  0  0  0  0  0  0  0
   -7.2818    2.4098    4.3376 N   0  0  0  0  0  0  0  0  0  0  0  0
   -8.4813    2.9269    4.0123 C   0  0  0  0  0  0  0  0  0  0  0  0
   -9.4520    2.3718    2.6060 S   0  0  0  0  0  0  0  0  0  0  0  0
  -10.3103    1.0557    3.5362 C   0  0  0  0  0  0  0  0  0  0  0  0
   -9.5381   -0.2277    3.4292 C   0  0  0  0  0  0  0  0  0  0  0  0
   -8.7928   -0.5753    4.3836 O   0  0  0  0  0  0  0  0  0  0  0  0
   -9.6354   -1.0714    2.2727 N   0  0  0  0  0  0  0  0  0  0  0  0
  -10.6168   -0.8620    1.2509 C   0  0  0  0  0  0  0  0  0  0  0  0
  -10.2891   -0.0710    0.1389 C   0  0  0  0  0  0  0  0  0  0  0  0
  -11.2433    0.1910   -0.8474 C   0  0  0  0  0  0  0  0  0  0  0  0
  -12.5290   -0.3394   -0.7362 C   0  0  0  0  0  0  0  0  0  0  0  0
  -12.8639   -1.1387    0.3606 C   0  0  0  0  0  0  0  0  0  0  0  0
  -11.9165   -1.4102    1.3644 C   0  0  0  0  0  0  0  0  0  0  0  0
  -12.3244   -2.2695    2.5383 C   0  0  0  0  0  0  0  0  0  0  0  0
  -12.5353   -3.6982    2.1087 C   0  0  0  0  0  0  0  0  0  0  0  0
  -11.4388   -4.4926    1.7288 C   0  0  0  0  0  0  0  0  0  0  0  0
  -11.6365   -5.8169    1.3245 C   0  0  0  0  0  0  0  0  0  0  0  0
  -12.9248   -6.3569    1.2947 C   0  0  0  0  0  0  0  0  0  0  0  0
  -14.0195   -5.5728    1.6683 C   0  0  0  0  0  0  0  0  0  0  0  0
  -13.8284   -4.2484    2.0754 C   0  0  0  0  0  0  0  0  0  0  0  0
   -8.8364    3.9302    4.8417 N   0  0  0  0  0  0  0  0  0  0  0  0
   -9.9565    4.8579    4.6661 C   0  0  0  0  0  0  0  0  0  0  0  0
   -9.5593    5.9664    3.7458 C   0  0  0  0  0  0  0  0  0  0  0  0
  -10.0010    6.1384    2.4494 C   0  0  0  0  0  0  0  0  0  0  0  0
   -9.3646    7.2712    1.9905 C   0  0  0  0  0  0  0  0  0  0  0  0
   -8.5798    7.7190    3.0346 C   0  0  0  0  0  0  0  0  0  0  0  0
   -8.7149    6.9185    4.0669 O   0  0  0  0  0  0  0  0  0  0  0  0
  1  3  4  0
  1 14  4  0
  1  2  1  0
  3  4  4  0
  4  5  4  0
  5  6  4  0
  5 22  1  0
  6  7  1  0
  6 14  4  0
  7  8  1  0
  8  9  4  0
  8 12  4  0
  9 10  4  0
 10 11  4  0
 11 12  4  0
 12 13  1  0
 13 14  1  0
 13 15  1  6
 15 16  4  0
 15 20  4  0
 16 17  4  0
 17 18  4  0
 17 21  1  0
 18 19  4  0
 19 20  4  0
 23 24  4  0
 24 25  4  0
 25 26  1  0
 26 27  1  0
 27 28  1  0
 28 29  2  0
 28 30  1  0
 30 31  1  0
 31 32  4  0
 32 33  4  0
 33 34  4  0
 34 35  4  0
 35 36  4  0
 36 37  1  0
 37 38  1  0
 38 39  4  0
 39 40  4  0
 40 41  4  0
 41 42  4  0
 42 43  4  0
 25 44  4  0
 44 45  1  0
 45 46  1  0
 46 47  4  0
 47 48  4  0
 48 49  4  0
 49 50  4  0
 50 46  4  0
 36 31  4  0
 43 38  4  0
  2 23  4  0
  2 44  4  0
M  END
$$$$

     RDKit          3D

 50 57  0  0  0  0  0  0  0  0999 V2000
   -7.6410    4.9930    6.8080 C   0  0  0  0  0  0  0  0  0  1  0  0
   -7.7310    4.0530    5.7140 C   0  0  0  0  0  0  0  0  0  2  0  0
   -6.4520    5.6300    6.8680 N   0  0  0  0  0  0  0  0  0  0  0  0
   -6.2260    6.5240    7.8670 N   0  0  0  0  0  0  0  0  0  0  0  0
   -7.1930    6.7500    8.7820 C   0  0  0  0  0  0  0  0  0  0  0  0
   -8.4240    6.1170    8.7580 C   0  0  0  0  0  0  0  0  0  0  0  0
   -9.3950    6.3570    9.7450 N   0  0  0  0  0  0  0  0  0  0  0  0
  -10.5620    5.6840    9.7600 C   0  0  0  0  0  0  0  0  0  0  0  0
  -11.5770    5.6820   10.5960 N   0  0  0  0  0  0  0  0  0  0  0  0
  -12.4690    4.7490   10.1080 N   0  0  0  0  0  0  0  0  0  0  0  0
  -12.0160    4.1880    8.9920 N   0  0  0  0  0  0  0  0  0  0  0  0
  -10.8400    4.7900    8.7610 N   0  0  0  0  0  0  0  0  0  0  0  0
   -9.9950    4.4790    7.6090 C   0  0  0  0  0  0  0  0  0  0  0  0
   -8.6630    5.2070    7.7200 C   0  0  0  0  0  0  0  0  0  0  0  0
  -10.7490    4.8610    6.3730 C   0  0  0  0  0  0  0  0  0  0  0  0
  -11.0350    6.2020    6.1170 C   0  0  0  0  0  0  0  0  0  0  0  0
  -11.7370    6.5580    4.9650 C   0  0  0  0  0  0  0  0  0  0  0  0
  -12.1550    5.5730    4.0710 C   0  0  0  0  0  0  0  0  0  0  0  0
  -11.8700    4.2310    4.3270 C   0  0  0  0  0  0  0  0  0  0  0  0
  -11.1660    3.8760    5.4790 C   0  0  0  0  0  0  0  0  0  0  0  0
  -12.0160    7.8660    4.7150 O   0  0  0  0  0  0  0  0  0  0  0  0
   -6.8990    7.6510    9.7710 O   0  0  0  0  0  0  0  0  0  0  0  0
   -6.8402    3.0950    5.3775 N   0  0  0  0  0  0  0  0  0  0  0  0
   -7.2569    2.4611    4.2925 N   0  0  0  0  0  0  0  0  0  0  0  0
   -8.4425    3.0041    3.9527 C   0  0  0  0  0  0  0  0  0  0  0  0
   -9.3753    2.4896    2.5077 S   0  0  0  0  0  0  0  0  0  0  0  0
  -10.0058    0.9539    3.2793 C   0  0  0  0  0  0  0  0  0  0  0  0
  -11.1995    1.1778    4.1734 C   0  0  0  0  0  0  0  0  0  0  0  0
  -11.7424    2.3127    4.2398 O   0  0  0  0  0  0  0  0  0  0  0  0
  -11.7587    0.0955    4.9313 N   0  0  0  0  0  0  0  0  0  0  0  0
  -11.2462   -1.2391    4.8477 C   0  0  0  0  0  0  0  0  0  0  0  0
  -10.2203   -1.6287    5.7201 C   0  0  0  0  0  0  0  0  0  0  0  0
   -9.6693   -2.9087    5.6352 C   0  0  0  0  0  0  0  0  0  0  0  0
  -10.1343   -3.8065    4.6720 C   0  0  0  0  0  0  0  0  0  0  0  0
  -11.1603   -3.4317    3.8005 C   0  0  0  0  0  0  0  0  0  0  0  0
  -11.7403   -2.1528    3.8870 C   0  0  0  0  0  0  0  0  0  0  0  0
  -12.8529   -1.7782    2.9310 C   0  0  0  0  0  0  0  0  0  0  0  0
  -14.0228   -2.7250    3.0479 C   0  0  0  0  0  0  0  0  0  0  0  0
  -14.6875   -2.8872    4.2755 C   0  0  0  0  0  0  0  0  0  0  0  0
  -15.7661   -3.7723    4.3843 C   0  0  0  0  0  0  0  0  0  0  0  0
  -16.1979   -4.4906    3.2668 C   0  0  0  0  0  0  0  0  0  0  0  0
  -15.5528   -4.3232    2.0375 C   0  0  0  0  0  0  0  0  0  0  0  0
  -14.4700   -3.4457    1.9288 C   0  0  0  0  0  0  0  0  0  0  0  0
   -8.8094    3.9797    4.8091 N   0  0  0  0  0  0  0  0  0  0  0  0
   -9.8639    4.9803    4.6153 C   0  0  0  0  0  0  0  0  0  0  0  0
   -9.2946    6.2638    4.0877 C   0  0  0  0  0  0  0  0  0  0  0  0
  -10.0134    7.4194    3.8580 C   0  0  0  0  0  0  0  0  0  0  0  0
   -9.1017    8.3347    3.3804 C   0  0  0  0  0  0  0  0  0  0  0  0
   -7.8842    7.6829    3.3491 C   0  0  0  0  0  0  0  0  0  0  0  0
   -8.0319    6.4498    3.7742 O   0  0  0  0  0  0  0  0  0  0  0  0
  1  3  4  0
  1 14  4  0
  1  2  1  0
  3  4  4  0
  4  5  4  0
  5  6  4  0
  5 22  1  0
  6  7  1  0
  6 14  4  0
  7  8  1  0
  8  9  4  0
  8 12  4  0
  9 10  4  0
 10 11  4  0
 11 12  4  0
 12 13  1  0
 13 14  1  0
 13 15  1  6
 15 16  4  0
 15 20  4  0
 16 17  4  0
 17 18  4  0
 17 21  1  0
 18 19  4  0
 19 20  4  0
 23 24  4  0
 24 25  4  0
 25 26  1  0
 26 27  1  0
 27 28  1  0
 28 29  2  0
 28 30  1  0
 30 31  1  0
 31 32  4  0
 32 33  4  0
 33 34  4  0
 34 35  4  0
 35 36  4  0
 36 37  1  0
 37 38  1  0
 38 39  4  0
 39 40  4  0
 40 41  4  0
 41 42  4  0
 42 43  4  0
 25 44  4  0
 44 45  1  0
 45 46  1  0
 46 47  4  0
 47 48  4  0
 48 49  4  0
 49 50  4  0
 50 46  4  0
 36 31  4  0
 43 38  4  0
  2 23  4  0
  2 44  4  0
M  END
$$$$

     RDKit          3D

 29 33  0  0  0  0  0  0  0  0999 V2000
   -7.6410    4.9930    6.8080 C   0  0  0  0  0  0  0  0  0  1  0  0
   -7.7310    4.0530    5.7140 C   0  0  0  0  0  0  0  0  0  2  0  0
   -6.4520    5.6300    6.8680 N   0  0  0  0  0  0  0  0  0  0  0  0
   -6.2260    6.5240    7.8670 N   0  0  0  0  0  0  0  0  0  0  0  0
   -7.1930    6.7500    8.7820 C   0  0  0  0  0  0  0  0  0  0  0  0
   -8.4240    6.1170    8.7580 C   0  0  0  0  0  0  0  0  0  0  0  0
   -9.3950    6.3570    9.7450 N   0  0  0  0  0  0  0  0  0  0  0  0
  -10.5620    5.6840    9.7600 C   0  0  0  0  0  0  0  0  0  0  0  0
  -11.5770    5.6820   10.5960 N   0  0  0  0  0  0  0  0  0  0  0  0
  -12.4690    4.7490   10.1080 N   0  0  0  0  0  0  0  0  0  0  0  0
  -12.0160    4.1880    8.9920 N   0  0  0  0  0  0  0  0  0  0  0  0
  -10.8400    4.7900    8.7610 N   0  0  0  0  0  0  0  0  0  0  0  0
   -9.9950    4.4790    7.6090 C   0  0  0  0  0  0  0  0  0  0  0  0
   -8.6630    5.2070    7.7200 C   0  0  0  0  0  0  0  0  0  0  0  0
  -10.7490    4.8610    6.3730 C   0  0  0  0  0  0  0  0  0  0  0  0
  -11.0350    6.2020    6.1170 C   0  0  0  0  0  0  0  0  0  0  0  0
  -11.7370    6.5580    4.9650 C   0  0  0  0  0  0  0  0  0  0  0  0
  -12.1550    5.5730    4.0710 C   0  0  0  0  0  0  0  0  0  0  0  0
  -11.8700    4.2310    4.3270 C   0  0  0  0  0  0  0  0  0  0  0  0
  -11.1660    3.8760    5.4790 C   0  0  0  0  0  0  0  0  0  0  0  0
  -12.0160    7.8660    4.7150 O   0  0  0  0  0  0  0  0  0  0  0  0
   -6.8990    7.6510    9.7710 O   0  0  0  0  0  0  0  0  0  0  0  0
   -6.9918    2.8383    5.6173 C   0  0  0  0  0  0  0  0  0  0  0  0
   -5.8773    2.5943    6.6020 C   0  0  0  0  0  0  0  0  0  0  0  0
   -7.2326    1.8892    4.6112 C   0  0  0  0  0  0  0  0  0  0  0  0
   -8.2701    2.0712    3.6994 C   0  0  0  0  0  0  0  0  0  0  0  0
   -9.0706    3.2094    3.7668 C   0  0  0  0  0  0  0  0  0  0  0  0
   -8.8423    4.1852    4.7464 C   0  0  0  0  0  0  0  0  0  0  0  0
   -9.6514    5.3701    4.7422 N   0  0  0  0  0  0  0  0  0  0  0  0
  1  3  4  0
  1 14  4  0
  1  2  1  0
  3  4  4  0
  4  5  4  0
  5  6  4  0
  5 22  1  0
  6  7  1  0
  6 14  4  0
  7  8  1  0
  8  9  4  0
  8 12  4  0
  9 10  4  0
 10 11  4  0
 11 12  4  0
 12 13  1  0
 13 14  1  0
 13 15  1  6
 15 16  4  0
 15 20  4  0
 16 17  4  0
 17 18  4  0
 17 21  1  0
 18 19  4  0
 19 20  4  0
 23 24  1  0
 23 25  4  0
 25 26  4  0
 26 27  4  0
 27 28  4  0
 28 29  1  0
  2 23  4  0
  2 28  4  0
M  END
$$$$

     RDKit          3D

 29 33  0  0  0  0  0  0  0  0999 V2000
   -7.6410    4.9930    6.8080 C   0  0  0  0  0  0  0  0  0  1  0  0
   -7.7310    4.0530    5.7140 C   0  0  0  0  0  0  0  0  0  2  0  0
   -6.4520    5.6300    6.8680 N   0  0  0  0  0  0  0  0  0  0  0  0
   -6.2260    6.5240    7.8670 N   0  0  0  0  0  0  0  0  0  0  0  0
   -7.1930    6.7500    8.7820 C   0  0  0  0  0  0  0  0  0  0  0  0
   -8.4240    6.1170    8.7580 C   0  0  0  0  0  0  0  0  0  0  0  0
   -9.3950    6.3570    9.7450 N   0  0  0  0  0  0  0  0  0  0  0  0
  -10.5620    5.6840    9.7600 C   0  0  0  0  0  0  0  0  0  0  0  0
  -11.5770    5.6820   10.5960 N   0  0  0  0  0  0  0  0  0  0  0  0
  -12.4690    4.7490   10.1080 N   0  0  0  0  0  0  0  0  0  0  0  0
  -12.0160    4.1880    8.9920 N   0  0  0  0  0  0  0  0  0  0  0  0
  -10.8400    4.7900    8.7610 N   0  0  0  0  0  0  0  0  0  0  0  0
   -9.9950    4.4790    7.6090 C   0  0  0  0  0  0  0  0  0  0  0  0
   -8.6630    5.2070    7.7200 C   0  0  0  0  0  0  0  0  0  0  0  0
  -10.7490    4.8610    6.3730 C   0  0  0  0  0  0  0  0  0  0  0  0
  -11.0350    6.2020    6.1170 C   0  0  0  0  0  0  0  0  0  0  0  0
  -11.7370    6.5580    4.9650 C   0  0  0  0  0  0  0  0  0  0  0  0
  -12.1550    5.5730    4.0710 C   0  0  0  0  0  0  0  0  0  0  0  0
  -11.8700    4.2310    4.3270 C   0  0  0  0  0  0  0  0  0  0  0  0
  -11.1660    3.8760    5.4790 C   0  0  0  0  0  0  0  0  0  0  0  0
  -12.0160    7.8660    4.7150 O   0  0  0  0  0  0  0  0  0  0  0  0
   -6.8990    7.6510    9.7710 O   0  0  0  0  0  0  0  0  0  0  0  0
   -8.7481    4.2493    4.6649 C   0  0  0  0  0  0  0  0  0  0  0  0
   -9.5658    5.5151    4.6168 C   0  0  0  0  0  0  0  0  0  0  0  0
   -8.9614    3.2794    3.6733 C   0  0  0  0  0  0  0  0  0  0  0  0
   -8.2231    2.0980    3.6658 C   0  0  0  0  0  0  0  0  0  0  0  0
   -7.2708    1.8611    4.6543 C   0  0  0  0  0  0  0  0  0  0  0  0
   -7.0524    2.7976    5.6738 C   0  0  0  0  0  0  0  0  0  0  0  0
   -6.0960    2.4923    6.6993 N   0  0  0  0  0  0  0  0  0  0  0  0
  1  3  4  0
  1 14  4  0
  1  2  1  0
  3  4  4  0
  4  5  4  0
  5  6  4  0
  5 22  1  0
  6  7  1  0
  6 14  4  0
  7  8  1  0
  8  9  4  0
  8 12  4  0
  9 10  4  0
 10 11  4  0
 11 12  4  0
 12 13  1  0
 13 14  1  0
 13 15  1  6
 15 16  4  0
 15 20  4  0
 16 17  4  0
 17 18  4  0
 17 21  1  0
 18 19  4  0
 19 20  4  0
 23 24  1  0
 23 25  4  0
 25 26  4  0
 26 27  4  0
 27 28  4  0
 28 29  1  0
  2 23  4  0
  2 28  4  0
M  END
$$$$

     RDKit          3D

 38 43  0  0  0  0  0  0  0  0999 V2000
   -7.6410    4.9930    6.8080 C   0  0  0  0  0  0  0  0  0  1  0  0
   -7.7310    4.0530    5.7140 C   0  0  0  0  0  0  0  0  0  2  0  0
   -6.4520    5.6300    6.8680 N   0  0  0  0  0  0  0  0  0  0  0  0
   -6.2260    6.5240    7.8670 N   0  0  0  0  0  0  0  0  0  0  0  0
   -7.1930    6.7500    8.7820 C   0  0  0  0  0  0  0  0  0  0  0  0
   -8.4240    6.1170    8.7580 C   0  0  0  0  0  0  0  0  0  0  0  0
   -9.3950    6.3570    9.7450 N   0  0  0  0  0  0  0  0  0  0  0  0
  -10.5620    5.6840    9.7600 C   0  0  0  0  0  0  0  0  0  0  0  0
  -11.5770    5.6820   10.5960 N   0  0  0  0  0  0  0  0  0  0  0  0
  -12.4690    4.7490   10.1080 N   0  0  0  0  0  0  0  0  0  0  0  0
  -12.0160    4.1880    8.9920 N   0  0  0  0  0  0  0  0  0  0  0  0
  -10.8400    4.7900    8.7610 N   0  0  0  0  0  0  0  0  0  0  0  0
   -9.9950    4.4790    7.6090 C   0  0  0  0  0  0  0  0  0  0  0  0
   -8.6630    5.2070    7.7200 C   0  0  0  0  0  0  0  0  0  0  0  0
  -10.7490    4.8610    6.3730 C   0  0  0  0  0  0  0  0  0  0  0  0
  -11.0350    6.2020    6.1170 C   0  0  0  0  0  0  0  0  0  0  0  0
  -11.7370    6.5580    4.9650 C   0  0  0  0  0  0  0  0  0  0  0  0
  -12.1550    5.5730    4.0710 C   0  0  0  0  0  0  0  0  0  0  0  0
  -11.8700    4.2310    4.3270 C   0  0  0  0  0  0  0  0  0  0  0  0
  -11.1660    3.8760    5.4790 C   0  0  0  0  0  0  0  0  0  0  0  0
  -12.0160    7.8660    4.7150 O   0  0  0  0  0  0  0  0  0  0  0  0
   -6.8990    7.6510    9.7710 O   0  0  0  0  0  0  0  0  0  0  0  0
   -6.8520    2.9857    5.4784 C   0  0  0  0  0  0  0  0  0  0  0  0
   -7.0386    2.0254    4.4814 C   0  0  0  0  0  0  0  0  0  0  0  0
   -5.8428    0.7647    4.2422 Cl  0  0  0  0  0  0  0  0  0  0  0  0
   -8.1805    2.0656    3.6800 C   0  0  0  0  0  0  0  0  0  0  0  0
   -9.1313    3.0714    3.8631 C   0  0  0  0  0  0  0  0  0  0  0  0
   -8.9497    4.0541    4.8563 C   0  0  0  0  0  0  0  0  0  0  0  0
   -9.8637    5.1065    5.0382 O   0  0  0  0  0  0  0  0  0  0  0  0
  -11.0239    5.3540    4.2451 C   0  0  0  0  0  0  0  0  0  0  0  0
  -10.6370    5.8927    2.8931 C   0  0  0  0  0  0  0  0  0  0  0  0
  -11.0772    5.2546    1.7209 C   0  0  0  0  0  0  0  0  0  0  0  0
  -10.7154    5.7557    0.4665 C   0  0  0  0  0  0  0  0  0  0  0  0
  -11.1386    5.1311   -0.6601 F   0  0  0  0  0  0  0  0  0  0  0  0
   -9.9186    6.8997    0.3728 C   0  0  0  0  0  0  0  0  0  0  0  0
   -9.4854    7.5469    1.5329 C   0  0  0  0  0  0  0  0  0  0  0  0
   -9.8441    7.0506    2.7904 C   0  0  0  0  0  0  0  0  0  0  0  0
   -9.4177    7.6962    3.9057 F   0  0  0  0  0  0  0  0  0  0  0  0
  1  3  4  0
  1 14  4  0
  1  2  1  0
  3  4  4  0
  4  5  4  0
  5  6  4  0
  5 22  1  0
  6  7  1  0
  6 14  4  0
  7  8  1  0
  8  9  4  0
  8 12  4  0
  9 10  4  0
 10 11  4  0
 11 12  4  0
 12 13  1  0
 13 14  1  0
 13 15  1  6
 15 16  4  0
 15 20  4  0
 16 17  4  0
 17 18  4  0
 17 21  1  0
 18 19  4  0
 19 20  4  0
 23 24  4  0
 24 25  1  0
 24 26  4  0
 26 27  4  0
 27 28  4  0
 28 29  1  0
 29 30  1  0
 30 31  1  0
 31 32  4  0
 32 33  4  0
 33 34  1  0
 33 35  4  0
 35 36  4  0
 36 37  4  0
 37 38  1  0
 37 31  4  0
  2 23  4  0
  2 28  4  0
M  END
$$$$

     RDKit          3D

 38 43  0  0  0  0  0  0  0  0999 V2000
   -7.6410    4.9930    6.8080 C   0  0  0  0  0  0  0  0  0  1  0  0
   -7.7310    4.0530    5.7140 C   0  0  0  0  0  0  0  0  0  2  0  0
   -6.4520    5.6300    6.8680 N   0  0  0  0  0  0  0  0  0  0  0  0
   -6.2260    6.5240    7.8670 N   0  0  0  0  0  0  0  0  0  0  0  0
   -7.1930    6.7500    8.7820 C   0  0  0  0  0  0  0  0  0  0  0  0
   -8.4240    6.1170    8.7580 C   0  0  0  0  0  0  0  0  0  0  0  0
   -9.3950    6.3570    9.7450 N   0  0  0  0  0  0  0  0  0  0  0  0
  -10.5620    5.6840    9.7600 C   0  0  0  0  0  0  0  0  0  0  0  0
  -11.5770    5.6820   10.5960 N   0  0  0  0  0  0  0  0  0  0  0  0
  -12.4690    4.7490   10.1080 N   0  0  0  0  0  0  0  0  0  0  0  0
  -12.0160    4.1880    8.9920 N   0  0  0  0  0  0  0  0  0  0  0  0
  -10.8400    4.7900    8.7610 N   0  0  0  0  0  0  0  0  0  0  0  0
   -9.9950    4.4790    7.6090 C   0  0  0  0  0  0  0  0  0  0  0  0
   -8.6630    5.2070    7.7200 C   0  0  0  0  0  0  0  0  0  0  0  0
  -10.7490    4.8610    6.3730 C   0  0  0  0  0  0  0  0  0  0  0  0
  -11.0350    6.2020    6.1170 C   0  0  0  0  0  0  0  0  0  0  0  0
  -11.7370    6.5580    4.9650 C   0  0  0  0  0  0  0  0  0  0  0  0
  -12.1550    5.5730    4.0710 C   0  0  0  0  0  0  0  0  0  0  0  0
  -11.8700    4.2310    4.3270 C   0  0  0  0  0  0  0  0  0  0  0  0
  -11.1660    3.8760    5.4790 C   0  0  0  0  0  0  0  0  0  0  0  0
  -12.0160    7.8660    4.7150 O   0  0  0  0  0  0  0  0  0  0  0  0
   -6.8990    7.6510    9.7710 O   0  0  0  0  0  0  0  0  0  0  0  0
   -6.8566    2.9756    5.5053 C   0  0  0  0  0  0  0  0  0  0  0  0
   -7.0689    1.9617    4.5671 C   0  0  0  0  0  0  0  0  0  0  0  0
   -5.8778    0.6900    4.3646 Cl  0  0  0  0  0  0  0  0  0  0  0  0
   -8.2375    1.9513    3.8036 C   0  0  0  0  0  0  0  0  0  0  0  0
   -9.1829    2.9662    3.9594 C   0  0  0  0  0  0  0  0  0  0  0  0
   -8.9681    4.0060    4.8716 C   0  0  0  0  0  0  0  0  0  0  0  0
   -9.9205    5.0330    4.9283 O   0  0  0  0  0  0  0  0  0  0  0  0
   -9.6174    6.4064    4.6790 C   0  0  0  0  0  0  0  0  0  0  0  0
   -9.0363    6.5749    3.2993 C   0  0  0  0  0  0  0  0  0  0  0  0
   -9.8175    6.2519    2.1775 C   0  0  0  0  0  0  0  0  0  0  0  0
   -9.2892    6.3760    0.8890 C   0  0  0  0  0  0  0  0  0  0  0  0
  -10.0491    6.0597   -0.1882 F   0  0  0  0  0  0  0  0  0  0  0  0
   -7.9770    6.8222    0.7114 C   0  0  0  0  0  0  0  0  0  0  0  0
   -7.1917    7.1448    1.8212 C   0  0  0  0  0  0  0  0  0  0  0  0
   -7.7144    7.0233    3.1130 C   0  0  0  0  0  0  0  0  0  0  0  0
   -6.9289    7.3361    4.1743 F   0  0  0  0  0  0  0  0  0  0  0  0
  1  3  4  0
  1 14  4  0
  1  2  1  0
  3  4  4  0
  4  5  4  0
  5  6  4  0
  5 22  1  0
  6  7  1  0
  6 14  4  0
  7  8  1  0
  8  9  4  0
  8 12  4  0
  9 10  4  0
 10 11  4  0
 11 12  4  0
 12 13  1  0
 13 14  1  0
 13 15  1  6
 15 16  4  0
 15 20  4  0
 16 17  4  0
 17 18  4  0
 17 21  1  0
 18 19  4  0
 19 20  4  0
 23 24  4  0
 24 25  1  0
 24 26  4  0
 26 27  4  0
 27 28  4  0
 28 29  1  0
 29 30  1  0
 30 31  1  0
 31 32  4  0
 32 33  4  0
 33 34  1  0
 33 35  4  0
 35 36  4  0
 36 37  4  0
 37 38  1  0
 37 31  4  0
  2 23  4  0
  2 28  4  0
M  END
$$$$

     RDKit          3D

 42 48  0  0  0  0  0  0  0  0999 V2000
   -7.6410    4.9930    6.8080 C   0  0  0  0  0  0  0  0  0  1  0  0
   -7.7310    4.0530    5.7140 C   0  0  0  0  0  0  0  0  0  2  0  0
   -6.4520    5.6300    6.8680 N   0  0  0  0  0  0  0  0  0  0  0  0
   -6.2260    6.5240    7.8670 N   0  0  0  0  0  0  0  0  0  0  0  0
   -7.1930    6.7500    8.7820 C   0  0  0  0  0  0  0  0  0  0  0  0
   -8.4240    6.1170    8.7580 C   0  0  0  0  0  0  0  0  0  0  0  0
   -9.3950    6.3570    9.7450 N   0  0  0  0  0  0  0  0  0  0  0  0
  -10.5620    5.6840    9.7600 C   0  0  0  0  0  0  0  0  0  0  0  0
  -11.5770    5.6820   10.5960 N   0  0  0  0  0  0  0  0  0  0  0  0
  -12.4690    4.7490   10.1080 N   0  0  0  0  0  0  0  0  0  0  0  0
  -12.0160    4.1880    8.9920 N   0  0  0  0  0  0  0  0  0  0  0  0
  -10.8400    4.7900    8.7610 N   0  0  0  0  0  0  0  0  0  0  0  0
   -9.9950    4.4790    7.6090 C   0  0  0  0  0  0  0  0  0  0  0  0
   -8.6630    5.2070    7.7200 C   0  0  0  0  0  0  0  0  0  0  0  0
  -10.7490    4.8610    6.3730 C   0  0  0  0  0  0  0  0  0  0  0  0
  -11.0350    6.2020    6.1170 C   0  0  0  0  0  0  0  0  0  0  0  0
  -11.7370    6.5580    4.9650 C   0  0  0  0  0  0  0  0  0  0  0  0
  -12.1550    5.5730    4.0710 C   0  0  0  0  0  0  0  0  0  0  0  0
  -11.8700    4.2310    4.3270 C   0  0  0  0  0  0  0  0  0  0  0  0
  -11.1660    3.8760    5.4790 C   0  0  0  0  0  0  0  0  0  0  0  0
  -12.0160    7.8660    4.7150 O   0  0  0  0  0  0  0  0  0  0  0  0
   -6.8990    7.6510    9.7710 O   0  0  0  0  0  0  0  0  0  0  0  0
   -6.9394    2.9778    5.4959 N   0  0  0  0  0  0  0  0  0  0  0  0
   -7.3710    2.3463    4.4171 N   0  0  0  0  0  0  0  0  0  0  0  0
   -8.4533    2.9921    3.9623 C   0  0  0  0  0  0  0  0  0  0  0  0
   -9.2366    2.5933    2.5782 S   0  0  0  0  0  0  0  0  0  0  0  0
   -8.7547    4.0448    4.7493 N   0  0  0  0  0  0  0  0  0  0  0  0
   -9.7205    5.1166    4.4833 C   0  0  0  0  0  0  0  0  0  0  0  0
   -9.0822    6.1915    3.5988 C   0  0  0  0  0  0  0  0  0  0  0  0
  -10.0648    7.2693    3.2506 C   0  0  0  0  0  0  0  0  0  0  0  0
   -9.8726    8.4408    3.6740 O   0  0  0  0  0  0  0  0  0  0  0  0
  -11.2032    6.9705    2.4252 N   0  0  0  0  0  0  0  0  0  0  0  0
  -12.0551    8.0078    1.8362 C   0  0  0  0  0  0  0  0  0  0  0  0
  -11.6857    8.1599    0.3495 C   0  0  0  0  0  0  0  0  0  0  0  0
  -12.7277    8.9962   -0.3877 C   0  0  0  0  0  0  0  0  0  0  0  0
  -14.0184    8.4085   -0.2398 O   0  0  0  0  0  0  0  0  0  0  0  0
  -14.4397    7.8577    0.9736 C   0  0  0  0  0  0  0  0  0  0  0  0
  -15.7824    7.5008    1.1353 C   0  0  0  0  0  0  0  0  0  0  0  0
  -16.2283    6.9947    2.3556 C   0  0  0  0  0  0  0  0  0  0  0  0
  -15.3342    6.8393    3.4177 C   0  0  0  0  0  0  0  0  0  0  0  0
  -13.9863    7.1696    3.2568 C   0  0  0  0  0  0  0  0  0  0  0  0
  -13.5187    7.6529    2.0244 C   0  0  0  0  0  0  0  0  0  0  0  0
  1  3  4  0
  1 14  4  0
  1  2  1  0
  3  4  4  0
  4  5  4  0
  5  6  4  0
  5 22  1  0
  6  7  1  0
  6 14  4  0
  7  8  1  0
  8  9  4  0
  8 12  4  0
  9 10  4  0
 10 11  4  0
 11 12  4  0
 12 13  1  0
 13 14  1  0
 13 15  1  6
 15 16  4  0
 15 20  4  0
 16 17  4  0
 17 18  4  0
 17 21  1  0
 18 19  4  0
 19 20  4  0
 23 24  4  0
 24 25  4  0
 25 26  2  0
 25 27  4  0
 27 28  1  0
 28 29  1  0
 29 30  1  0
 30 31  2  0
 30 32  1  0
 32 33  1  0
 33 34  1  0
 34 35  1  0
 35 36  1  0
 36 37  1  0
 37 38  4  0
 38 39  4  0
 39 40  4  0
 40 41  4  0
 41 42  4  0
 42 33  1  0
 42 37  4  0
  2 23  4  0
  2 27  4  0
M  END
$$$$

     RDKit          3D

 42 48  0  0  0  0  0  0  0  0999 V2000
   -7.6410    4.9930    6.8080 C   0  0  0  0  0  0  0  0  0  1  0  0
   -7.7310    4.0530    5.7140 C   0  0  0  0  0  0  0  0  0  2  0  0
   -6.4520    5.6300    6.8680 N   0  0  0  0  0  0  0  0  0  0  0  0
   -6.2260    6.5240    7.8670 N   0  0  0  0  0  0  0  0  0  0  0  0
   -7.1930    6.7500    8.7820 C   0  0  0  0  0  0  0  0  0  0  0  0
   -8.4240    6.1170    8.7580 C   0  0  0  0  0  0  0  0  0  0  0  0
   -9.3950    6.3570    9.7450 N   0  0  0  0  0  0  0  0  0  0  0  0
  -10.5620    5.6840    9.7600 C   0  0  0  0  0  0  0  0  0  0  0  0
  -11.5770    5.6820   10.5960 N   0  0  0  0  0  0  0  0  0  0  0  0
  -12.4690    4.7490   10.1080 N   0  0  0  0  0  0  0  0  0  0  0  0
  -12.0160    4.1880    8.9920 N   0  0  0  0  0  0  0  0  0  0  0  0
  -10.8400    4.7900    8.7610 N   0  0  0  0  0  0  0  0  0  0  0  0
   -9.9950    4.4790    7.6090 C   0  0  0  0  0  0  0  0  0  0  0  0
   -8.6630    5.2070    7.7200 C   0  0  0  0  0  0  0  0  0  0  0  0
  -10.7490    4.8610    6.3730 C   0  0  0  0  0  0  0  0  0  0  0  0
  -11.0350    6.2020    6.1170 C   0  0  0  0  0  0  0  0  0  0  0  0
  -11.7370    6.5580    4.9650 C   0  0  0  0  0  0  0  0  0  0  0  0
  -12.1550    5.5730    4.0710 C   0  0  0  0  0  0  0  0  0  0  0  0
  -11.8700    4.2310    4.3270 C   0  0  0  0  0  0  0  0  0  0  0  0
  -11.1660    3.8760    5.4790 C   0  0  0  0  0  0  0  0  0  0  0  0
  -12.0160    7.8660    4.7150 O   0  0  0  0  0  0  0  0  0  0  0  0
   -6.8990    7.6510    9.7710 O   0  0  0  0  0  0  0  0  0  0  0  0
   -6.8658    3.0538    5.4230 N   0  0  0  0  0  0  0  0  0  0  0  0
   -7.3028    2.4050    4.3567 N   0  0  0  0  0  0  0  0  0  0  0  0
   -8.4599    2.9684    3.9743 C   0  0  0  0  0  0  0  0  0  0  0  0
   -9.2975    2.4963    2.6466 S   0  0  0  0  0  0  0  0  0  0  0  0
   -8.8038    3.9855    4.7949 N   0  0  0  0  0  0  0  0  0  0  0  0
   -9.8847    4.9661    4.6166 C   0  0  0  0  0  0  0  0  0  0  0  0
   -9.3497    6.2750    4.0199 C   0  0  0  0  0  0  0  0  0  0  0  0
   -8.8395    6.0828    2.6170 C   0  0  0  0  0  0  0  0  0  0  0  0
   -7.5951    6.1153    2.4203 O   0  0  0  0  0  0  0  0  0  0  0  0
   -9.7126    5.8532    1.4965 N   0  0  0  0  0  0  0  0  0  0  0  0
  -11.1649    6.0742    1.4966 C   0  0  0  0  0  0  0  0  0  0  0  0
  -11.8593    4.8338    0.8985 C   0  0  0  0  0  0  0  0  0  0  0  0
  -13.3292    5.1258    0.6040 C   0  0  0  0  0  0  0  0  0  0  0  0
  -13.4332    6.2391   -0.2789 O   0  0  0  0  0  0  0  0  0  0  0  0
  -12.6237    7.3698   -0.1317 C   0  0  0  0  0  0  0  0  0  0  0  0
  -12.9302    8.5323   -0.8469 C   0  0  0  0  0  0  0  0  0  0  0  0
  -12.1581    9.6841   -0.6784 C   0  0  0  0  0  0  0  0  0  0  0  0
  -11.0795    9.6795    0.2090 C   0  0  0  0  0  0  0  0  0  0  0  0
  -10.7575    8.5177    0.9167 C   0  0  0  0  0  0  0  0  0  0  0  0
  -11.5056    7.3409    0.7298 C   0  0  0  0  0  0  0  0  0  0  0  0
  1  3  4  0
  1 14  4  0
  1  2  1  0
  3  4  4  0
  4  5  4  0
  5  6  4  0
  5 22  1  0
  6  7  1  0
  6 14  4  0
  7  8  1  0
  8  9  4  0
  8 12  4  0
  9 10  4  0
 10 11  4  0
 11 12  4  0
 12 13  1  0
 13 14  1  0
 13 15  1  6
 15 16  4  0
 15 20  4  0
 16 17  4  0
 17 18  4  0
 17 21  1  0
 18 19  4  0
 19 20  4  0
 23 24  4  0
 24 25  4  0
 25 26  2  0
 25 27  4  0
 27 28  1  0
 28 29  1  0
 29 30  1  0
 30 31  2  0
 30 32  1  0
 32 33  1  0
 33 34  1  0
 34 35  1  0
 35 36  1  0
 36 37  1  0
 37 38  4  0
 38 39  4  0
 39 40  4  0
 40 41  4  0
 41 42  4  0
 42 33  1  0
 42 37  4  0
  2 23  4  0
  2 27  4  0
M  END
$$$$

     RDKit          3D

 28 32  0  0  0  0  0  0  0  0999 V2000
   -7.6410    4.9930    6.8080 C   0  0  0  0  0  0  0  0  0  1  0  0
   -7.7310    4.0530    5.7140 C   0  0  0  0  0  0  0  0  0  2  0  0
   -6.4520    5.6300    6.8680 N   0  0  0  0  0  0  0  0  0  0  0  0
   -6.2260    6.5240    7.8670 N   0  0  0  0  0  0  0  0  0  0  0  0
   -7.1930    6.7500    8.7820 C   0  0  0  0  0  0  0  0  0  0  0  0
   -8.4240    6.1170    8.7580 C   0  0  0  0  0  0  0  0  0  0  0  0
   -9.3950    6.3570    9.7450 N   0  0  0  0  0  0  0  0  0  0  0  0
  -10.5620    5.6840    9.7600 C   0  0  0  0  0  0  0  0  0  0  0  0
  -11.5770    5.6820   10.5960 N   0  0  0  0  0  0  0  0  0  0  0  0
  -12.4690    4.7490   10.1080 N   0  0  0  0  0  0  0  0  0  0  0  0
  -12.0160    4.1880    8.9920 N   0  0  0  0  0  0  0  0  0  0  0  0
  -10.8400    4.7900    8.7610 N   0  0  0  0  0  0  0  0  0  0  0  0
   -9.9950    4.4790    7.6090 C   0  0  0  0  0  0  0  0  0  0  0  0
   -8.6630    5.2070    7.7200 C   0  0  0  0  0  0  0  0  0  0  0  0
  -10.7490    4.8610    6.3730 C   0  0  0  0  0  0  0  0  0  0  0  0
  -11.0350    6.2020    6.1170 C   0  0  0  0  0  0  0  0  0  0  0  0
  -11.7370    6.5580    4.9650 C   0  0  0  0  0  0  0  0  0  0  0  0
  -12.1550    5.5730    4.0710 C   0  0  0  0  0  0  0  0  0  0  0  0
  -11.8700    4.2310    4.3270 C   0  0  0  0  0  0  0  0  0  0  0  0
  -11.1660    3.8760    5.4790 C   0  0  0  0  0  0  0  0  0  0  0  0
  -12.0160    7.8660    4.7150 O   0  0  0  0  0  0  0  0  0  0  0  0
   -6.8990    7.6510    9.7710 O   0  0  0  0  0  0  0  0  0  0  0  0
   -6.8281    3.1169    5.3559 N   0  0  0  0  0  0  0  0  0  0  0  0
   -7.2789    2.4293    4.3161 N   0  0  0  0  0  0  0  0  0  0  0  0
   -8.5012    2.9096    4.0239 C   0  0  0  0  0  0  0  0  0  0  0  0
   -8.8530    3.8996    4.8660 N   0  0  0  0  0  0  0  0  0  0  0  0
  -10.0083    4.7912    4.7067 C   0  0  0  0  0  0  0  0  0  0  0  0
   -9.7419    5.8194    3.6088 C   0  0  0  0  0  0  0  0  0  0  0  0
  1  3  4  0
  1 14  4  0
  1  2  1  0
  3  4  4  0
  4  5  4  0
  5  6  4  0
  5 22  1  0
  6  7  1  0
  6 14  4  0
  7  8  1  0
  8  9  4  0
  8 12  4  0
  9 10  4  0
 10 11  4  0
 11 12  4  0
 12 13  1  0
 13 14  1  0
 13 15  1  6
 15 16  4  0
 15 20  4  0
 16 17  4  0
 17 18  4  0
 17 21  1  0
 18 19  4  0
 19 20  4  0
 23 24  4  0
 24 25  4  0
 25 26  4  0
 26 27  1  0
 27 28  1  0
  2 23  4  0
  2 26  4  0
M  END
$$$$

     RDKit          3D

 48 54  0  0  0  0  0  0  0  0999 V2000
   -7.6410    4.9930    6.8080 C   0  0  0  0  0  0  0  0  0  1  0  0
   -7.7310    4.0530    5.7140 C   0  0  0  0  0  0  0  0  0  2  0  0
   -6.4520    5.6300    6.8680 N   0  0  0  0  0  0  0  0  0  0  0  0
   -6.2260    6.5240    7.8670 N   0  0  0  0  0  0  0  0  0  0  0  0
   -7.1930    6.7500    8.7820 C   0  0  0  0  0  0  0  0  0  0  0  0
   -8.4240    6.1170    8.7580 C   0  0  0  0  0  0  0  0  0  0  0  0
   -9.3950    6.3570    9.7450 N   0  0  0  0  0  0  0  0  0  0  0  0
  -10.5620    5.6840    9.7600 C   0  0  0  0  0  0  0  0  0  0  0  0
  -11.5770    5.6820   10.5960 N   0  0  0  0  0  0  0  0  0  0  0  0
  -12.4690    4.7490   10.1080 N   0  0  0  0  0  0  0  0  0  0  0  0
  -12.0160    4.1880    8.9920 N   0  0  0  0  0  0  0  0  0  0  0  0
  -10.8400    4.7900    8.7610 N   0  0  0  0  0  0  0  0  0  0  0  0
   -9.9950    4.4790    7.6090 C   0  0  0  0  0  0  0  0  0  0  0  0
   -8.6630    5.2070    7.7200 C   0  0  0  0  0  0  0  0  0  0  0  0
  -10.7490    4.8610    6.3730 C   0  0  0  0  0  0  0  0  0  0  0  0
  -11.0350    6.2020    6.1170 C   0  0  0  0  0  0  0  0  0  0  0  0
  -11.7370    6.5580    4.9650 C   0  0  0  0  0  0  0  0  0  0  0  0
  -12.1550    5.5730    4.0710 C   0  0  0  0  0  0  0  0  0  0  0  0
  -11.8700    4.2310    4.3270 C   0  0  0  0  0  0  0  0  0  0  0  0
  -11.1660    3.8760    5.4790 C   0  0  0  0  0  0  0  0  0  0  0  0
  -12.0160    7.8660    4.7150 O   0  0  0  0  0  0  0  0  0  0  0  0
   -6.8990    7.6510    9.7710 O   0  0  0  0  0  0  0  0  0  0  0  0
   -6.8819    2.9322    5.5727 C   0  0  0  0  0  0  0  0  0  0  0  0
   -7.0120    2.0025    4.5391 C   0  0  0  0  0  0  0  0  0  0  0  0
   -8.0443    2.1332    3.6083 C   0  0  0  0  0  0  0  0  0  0  0  0
   -8.9451    3.1989    3.7016 C   0  0  0  0  0  0  0  0  0  0  0  0
   -8.8213    4.1507    4.7340 C   0  0  0  0  0  0  0  0  0  0  0  0
   -9.6773    5.2662    4.8285 O   0  0  0  0  0  0  0  0  0  0  0  0
  -10.6447    5.6617    3.8509 C   0  0  0  0  0  0  0  0  0  0  0  0
   -9.9964    6.1611    2.5864 C   0  0  0  0  0  0  0  0  0  0  0  0
  -10.7329    6.6191    1.6725 O   0  0  0  0  0  0  0  0  0  0  0  0
   -8.5593    6.2090    2.4594 N   0  0  0  0  0  0  0  0  0  0  0  0
   -7.8739    5.9402    1.3723 C   0  0  0  0  0  0  0  0  0  0  0  0
   -6.4764    6.1171    1.3838 C   0  0  0  0  0  0  0  0  0  0  0  0
   -5.6884    5.8782    0.2523 C   0  0  0  0  0  0  0  0  0  0  0  0
   -6.2769    5.4646   -0.9587 C   0  0  0  0  0  0  0  0  0  1  0  0
   -5.5743    5.2694   -2.1764 C   0  0  0  0  0  0  0  0  0  0  0  0
   -4.1290    5.7005   -2.3315 C   0  0  0  0  0  0  0  0  0  0  0  0
   -6.2759    4.7033   -3.2848 C   0  0  0  0  0  0  0  0  0  0  0  0
   -5.5522    4.2904   -4.5613 C   0  0  0  0  0  0  0  0  0  0  0  0
   -5.4370    2.7954   -4.6495 C   0  0  0  0  0  0  0  0  0  0  0  0
   -4.8289    2.1508   -3.7482 O   0  0  0  0  0  0  0  0  0  0  0  0
   -5.9660    2.1112   -5.7463 O   0  0  0  0  0  0  0  0  0  0  0  0
   -7.6770    4.4658   -3.1675 C   0  0  0  0  0  0  0  0  0  0  0  0
   -8.4374    3.9635   -4.2284 O   0  0  0  0  0  0  0  0  0  0  0  0
   -8.3201    4.7269   -2.0376 O   0  0  0  0  0  0  0  0  0  0  0  0
   -7.7290    5.1954   -0.9522 C   0  0  0  0  0  0  0  0  0  2  0  0
   -8.4836    5.4320    0.2001 C   0  0  0  0  0  0  0  0  0  0  0  0
  1  3  4  0
  1 14  4  0
  1  2  1  0
  3  4  4  0
  4  5  4  0
  5  6  4  0
  5 22  1  0
  6  7  1  0
  6 14  4  0
  7  8  1  0
  8  9  4  0
  8 12  4  0
  9 10  4  0
 10 11  4  0
 11 12  4  0
 12 13  1  0
 13 14  1  0
 13 15  1  6
 15 16  4  0
 15 20  4  0
 16 17  4  0
 17 18  4  0
 17 21  1  0
 18 19  4  0
 19 20  4  0
 23 24  4  0
 24 25  4  0
 25 26  4  0
 26 27  4  0
 27 28  1  0
 28 29  1  0
 29 30  1  0
 30 31  2  0
 30 32  1  0
 32 33  2  3
 33 34  4  0
 34 35  4  0
 35 36  4  0
 36 37  4  0
 37 38  1  0
 37 39  4  0
 39 40  1  0
 40 41  1  0
 41 42  2  0
 41 43  1  0
 39 44  4  0
 44 45  1  0
 44 46  4  0
 46 47  4  0
 47 48  4  0
 48 33  4  0
 47 36  1  0
  2 23  4  0
  2 27  4  0
M  CHG  2  32   1  43  -1
M  END
$$$$

     RDKit          3D

 33 38  0  0  0  0  0  0  0  0999 V2000
   -7.6410    4.9930    6.8080 C   0  0  0  0  0  0  0  0  0  1  0  0
   -7.7310    4.0530    5.7140 C   0  0  0  0  0  0  0  0  0  2  0  0
   -6.4520    5.6300    6.8680 N   0  0  0  0  0  0  0  0  0  0  0  0
   -6.2260    6.5240    7.8670 N   0  0  0  0  0  0  0  0  0  0  0  0
   -7.1930    6.7500    8.7820 C   0  0  0  0  0  0  0  0  0  0  0  0
   -8.4240    6.1170    8.7580 C   0  0  0  0  0  0  0  0  0  0  0  0
   -9.3950    6.3570    9.7450 N   0  0  0  0  0  0  0  0  0  0  0  0
  -10.5620    5.6840    9.7600 C   0  0  0  0  0  0  0  0  0  0  0  0
  -11.5770    5.6820   10.5960 N   0  0  0  0  0  0  0  0  0  0  0  0
  -12.4690    4.7490   10.1080 N   0  0  0  0  0  0  0  0  0  0  0  0
  -12.0160    4.1880    8.9920 N   0  0  0  0  0  0  0  0  0  0  0  0
  -10.8400    4.7900    8.7610 N   0  0  0  0  0  0  0  0  0  0  0  0
   -9.9950    4.4790    7.6090 C   0  0  0  0  0  0  0  0  0  0  0  0
   -8.6630    5.2070    7.7200 C   0  0  0  0  0  0  0  0  0  0  0  0
  -10.7490    4.8610    6.3730 C   0  0  0  0  0  0  0  0  0  0  0  0
  -11.0350    6.2020    6.1170 C   0  0  0  0  0  0  0  0  0  0  0  0
  -11.7370    6.5580    4.9650 C   0  0  0  0  0  0  0  0  0  0  0  0
  -12.1550    5.5730    4.0710 C   0  0  0  0  0  0  0  0  0  0  0  0
  -11.8700    4.2310    4.3270 C   0  0  0  0  0  0  0  0  0  0  0  0
  -11.1660    3.8760    5.4790 C   0  0  0  0  0  0  0  0  0  0  0  0
  -12.0160    7.8660    4.7150 O   0  0  0  0  0  0  0  0  0  0  0  0
   -6.8990    7.6510    9.7710 O   0  0  0  0  0  0  0  0  0  0  0  0
   -7.2533    2.8020    5.7409 O   0  0  0  0  0  0  0  0  0  0  0  0
   -7.5853    2.1774    4.6390 C   0  0  0  0  0  0  0  0  0  0  0  0
   -7.2528    0.8756    4.2720 C   0  0  0  0  0  0  0  0  0  0  0  0
   -7.7303    0.3976    3.0386 C   0  0  0  0  0  0  0  0  0  0  0  0
   -8.5220    1.2230    2.2105 C   0  0  0  0  0  0  0  0  0  0  0  0
   -8.8409    2.5346    2.6068 C   0  0  0  0  0  0  0  0  0  0  0  0
   -8.3486    2.9840    3.8345 C   0  0  0  0  0  0  0  0  0  0  0  0
   -8.4814    4.1956    4.4900 C   0  0  0  0  0  0  0  0  0  0  0  0
   -9.2588    5.4002    3.9966 C   0  0  0  0  0  0  0  0  0  0  0  0
   -8.5238    6.7226    4.2481 C   0  0  0  0  0  0  0  0  0  0  0  0
  -10.6663    5.4244    4.5965 C   0  0  0  0  0  0  0  0  0  0  0  0
  1  3  4  0
  1 14  4  0
  1  2  1  0
  3  4  4  0
  4  5  4  0
  5  6  4  0
  5 22  1  0
  6  7  1  0
  6 14  4  0
  7  8  1  0
  8  9  4  0
  8 12  4  0
  9 10  4  0
 10 11  4  0
 11 12  4  0
 12 13  1  0
 13 14  1  0
 13 15  1  6
 15 16  4  0
 15 20  4  0
 16 17  4  0
 17 18  4  0
 17 21  1  0
 18 19  4  0
 19 20  4  0
 23 24  4  0
 24 25  4  0
 25 26  4  0
 26 27  4  0
 27 28  4  0
 28 29  4  0
 29 30  4  0
 30 31  1  0
 31 32  1  0
 31 33  1  0
 29 24  4  0
  2 23  4  0
  2 30  4  0
M  END
$$$$

     RDKit          3D

 45 51  0  0  0  0  0  0  0  0999 V2000
   -7.6410    4.9930    6.8080 C   0  0  0  0  0  0  0  0  0  1  0  0
   -7.7310    4.0530    5.7140 C   0  0  0  0  0  0  0  0  0  2  0  0
   -6.4520    5.6300    6.8680 N   0  0  0  0  0  0  0  0  0  0  0  0
   -6.2260    6.5240    7.8670 N   0  0  0  0  0  0  0  0  0  0  0  0
   -7.1930    6.7500    8.7820 C   0  0  0  0  0  0  0  0  0  0  0  0
   -8.4240    6.1170    8.7580 C   0  0  0  0  0  0  0  0  0  0  0  0
   -9.3950    6.3570    9.7450 N   0  0  0  0  0  0  0  0  0  0  0  0
  -10.5620    5.6840    9.7600 C   0  0  0  0  0  0  0  0  0  0  0  0
  -11.5770    5.6820   10.5960 N   0  0  0  0  0  0  0  0  0  0  0  0
  -12.4690    4.7490   10.1080 N   0  0  0  0  0  0  0  0  0  0  0  0
  -12.0160    4.1880    8.9920 N   0  0  0  0  0  0  0  0  0  0  0  0
  -10.8400    4.7900    8.7610 N   0  0  0  0  0  0  0  0  0  0  0  0
   -9.9950    4.4790    7.6090 C   0  0  0  0  0  0  0  0  0  0  0  0
   -8.6630    5.2070    7.7200 C   0  0  0  0  0  0  0  0  0  0  0  0
  -10.7490    4.8610    6.3730 C   0  0  0  0  0  0  0  0  0  0  0  0
  -11.0350    6.2020    6.1170 C   0  0  0  0  0  0  0  0  0  0  0  0
  -11.7370    6.5580    4.9650 C   0  0  0  0  0  0  0  0  0  0  0  0
  -12.1550    5.5730    4.0710 C   0  0  0  0  0  0  0  0  0  0  0  0
  -11.8700    4.2310    4.3270 C   0  0  0  0  0  0  0  0  0  0  0  0
  -11.1660    3.8760    5.4790 C   0  0  0  0  0  0  0  0  0  0  0  0
  -12.0160    7.8660    4.7150 O   0  0  0  0  0  0  0  0  0  0  0  0
   -6.8990    7.6510    9.7710 O   0  0  0  0  0  0  0  0  0  0  0  0
   -6.8939    2.9424    5.5090 C   0  0  0  0  0  0  0  0  0  0  0  0
   -7.4144    1.9803    4.2207 S   0  0  0  0  0  0  0  0  0  0  0  0
   -8.7598    2.9180    3.8838 C   0  0  0  0  0  0  0  0  0  0  0  0
   -9.6555    2.7135    2.8939 N   0  0  0  0  0  0  0  0  0  0  0  0
  -10.6796    3.5951    2.7361 C   0  0  0  0  0  0  0  0  0  0  0  0
  -10.8024    4.6882    3.5600 N   0  0  0  0  0  0  0  0  0  0  0  0
  -11.9027    5.6341    3.3146 C   0  0  0  0  0  0  0  0  0  0  0  0
  -11.4961    6.6449    2.2758 C   0  0  0  0  0  0  0  0  0  0  0  0
  -10.4702    7.3486    2.4759 O   0  0  0  0  0  0  0  0  0  0  0  0
  -12.2144    6.7948    1.0424 N   0  0  0  0  0  0  0  0  0  0  0  0
  -13.5511    6.3906    0.8787 N   0  0  0  0  0  0  0  0  0  0  0  0
  -14.5705    6.7375    1.8279 C   0  0  0  0  0  0  0  0  0  0  0  0
  -14.3367    7.6213    2.6970 O   0  0  0  0  0  0  0  0  0  0  0  0
  -15.9068    6.1007    1.7754 C   0  0  0  0  0  0  0  0  0  0  0  0
  -17.0351    6.8094    2.2285 C   0  0  0  0  0  0  0  0  0  0  0  0
  -18.3042    6.2249    2.1864 C   0  0  0  0  0  0  0  0  0  0  0  0
  -18.4605    4.9250    1.7023 C   0  0  0  0  0  0  0  0  0  0  0  0
  -17.3475    4.2046    1.2643 C   0  0  0  0  0  0  0  0  0  0  0  0
  -16.0736    4.7825    1.3014 C   0  0  0  0  0  0  0  0  0  0  0  0
  -15.0076    4.0352    0.9178 F   0  0  0  0  0  0  0  0  0  0  0  0
   -9.8769    4.9156    4.5543 C   0  0  0  0  0  0  0  0  0  0  0  0
   -9.9461    5.9543    5.2666 O   0  0  0  0  0  0  0  0  0  0  0  0
   -8.8394    3.9904    4.7463 C   0  0  0  0  0  0  0  0  0  0  0  0
  1  3  4  0
  1 14  4  0
  1  2  1  0
  3  4  4  0
  4  5  4  0
  5  6  4  0
  5 22  1  0
  6  7  1  0
  6 14  4  0
  7  8  1  0
  8  9  4  0
  8 12  4  0
  9 10  4  0
 10 11  4  0
 11 12  4  0
 12 13  1  0
 13 14  1  0
 13 15  1  6
 15 16  4  0
 15 20  4  0
 16 17  4  0
 17 18  4  0
 17 21  1  0
 18 19  4  0
 19 20  4  0
 23 24  4  0
 24 25  4  0
 25 26  4  0
 26 27  4  0
 27 28  4  0
 28 29  1  0
 29 30  1  0
 30 31  2  0
 30 32  1  0
 32 33  1  0
 33 34  1  0
 34 35  2  0
 34 36  1  0
 36 37  4  0
 37 38  4  0
 38 39  4  0
 39 40  4  0
 40 41  4  0
 41 42  1  0
 28 43  4  0
 43 44  2  0
 43 45  4  0
 45 25  4  0
 41 36  4  0
  2 23  4  0
  2 45  4  0
M  END
$$$$

     RDKit          3D

 47 55  0  0  0  0  0  0  0  0999 V2000
   -7.6410    4.9930    6.8080 C   0  0  0  0  0  0  0  0  0  1  0  0
   -7.7310    4.0530    5.7140 C   0  0  0  0  0  0  0  0  0  2  0  0
   -6.4520    5.6300    6.8680 N   0  0  0  0  0  0  0  0  0  0  0  0
   -6.2260    6.5240    7.8670 N   0  0  0  0  0  0  0  0  0  0  0  0
   -7.1930    6.7500    8.7820 C   0  0  0  0  0  0  0  0  0  0  0  0
   -8.4240    6.1170    8.7580 C   0  0  0  0  0  0  0  0  0  0  0  0
   -9.3950    6.3570    9.7450 N   0  0  0  0  0  0  0  0  0  0  0  0
  -10.5620    5.6840    9.7600 C   0  0  0  0  0  0  0  0  0  0  0  0
  -11.5770    5.6820   10.5960 N   0  0  0  0  0  0  0  0  0  0  0  0
  -12.4690    4.7490   10.1080 N   0  0  0  0  0  0  0  0  0  0  0  0
  -12.0160    4.1880    8.9920 N   0  0  0  0  0  0  0  0  0  0  0  0
  -10.8400    4.7900    8.7610 N   0  0  0  0  0  0  0  0  0  0  0  0
   -9.9950    4.4790    7.6090 C   0  0  0  0  0  0  0  0  0  0  0  0
   -8.6630    5.2070    7.7200 C   0  0  0  0  0  0  0  0  0  0  0  0
  -10.7490    4.8610    6.3730 C   0  0  0  0  0  0  0  0  0  0  0  0
  -11.0350    6.2020    6.1170 C   0  0  0  0  0  0  0  0  0  0  0  0
  -11.7370    6.5580    4.9650 C   0  0  0  0  0  0  0  0  0  0  0  0
  -12.1550    5.5730    4.0710 C   0  0  0  0  0  0  0  0  0  0  0  0
  -11.8700    4.2310    4.3270 C   0  0  0  0  0  0  0  0  0  0  0  0
  -11.1660    3.8760    5.4790 C   0  0  0  0  0  0  0  0  0  0  0  0
  -12.0160    7.8660    4.7150 O   0  0  0  0  0  0  0  0  0  0  0  0
   -6.8990    7.6510    9.7710 O   0  0  0  0  0  0  0  0  0  0  0  0
   -6.7693    3.2890    5.1546 N   0  0  0  0  0  0  0  0  0  0  0  0
   -7.2741    2.5654    4.1597 N   0  0  0  0  0  0  0  0  0  0  0  0
   -8.5912    2.8295    4.1408 C   0  0  0  0  0  0  0  0  0  0  0  0
   -8.9388    3.7217    5.0464 N   0  0  0  0  0  0  0  0  0  0  0  0
  -10.2239    4.3750    4.8700 C   0  0  0  0  0  0  0  0  0  0  0  0
  -10.0585    5.8642    4.5089 C   0  0  0  0  0  0  0  0  0  0  0  0
   -9.0311    6.1035    3.0156 S   0  0  0  0  0  0  0  0  0  0  0  0
   -9.2031    7.8895    3.0133 C   0  0  0  0  0  0  0  0  0  0  0  0
   -8.4463    8.6966    3.7774 N   0  0  0  0  0  0  0  0  0  0  0  0
   -8.8072    9.9385    3.4979 N   0  0  0  0  0  0  0  0  0  0  0  0
   -9.7703    9.8766    2.5564 C   0  0  0  0  0  0  0  0  0  1  0  0
  -10.3911   11.0921    1.9908 C   0  0  0  0  0  0  0  0  0  2  0  0
  -10.4365   12.3250    2.6342 C   0  0  0  0  0  0  0  0  0  0  0  0
  -11.0169   13.3385    1.8623 C   0  0  0  0  0  0  0  0  0  0  0  0
  -11.4170   12.9190    0.6006 C   0  0  0  0  0  0  0  0  0  0  0  0
  -11.0414   11.2899    0.4509 S   0  0  0  0  0  0  0  0  0  0  0  0
  -10.0460    8.5909    2.2239 N   0  0  0  0  0  0  0  0  0  0  0  0
  -11.0736    8.0457    1.3281 C   0  0  0  0  0  0  0  0  0  0  0  0
  -12.4574    8.0646    1.9967 C   0  0  0  0  0  0  0  0  0  0  0  0
  -13.4877    7.3092    1.1764 C   0  0  0  0  0  0  0  0  0  0  0  0
  -14.7581    8.0144    1.5259 C   0  0  0  0  0  0  0  0  0  0  0  0
  -14.2890    9.4111    1.8868 C   0  0  0  0  0  0  0  0  0  0  0  0
  -12.9090    9.3863    2.1757 O   0  0  0  0  0  0  0  0  0  0  0  0
  -10.9479    3.5813    3.7447 C   0  0  0  0  0  0  0  0  0  0  0  0
   -9.7656    2.4535    2.8763 S   0  0  0  0  0  0  0  0  0  0  0  0
  1  3  4  0
  1 14  4  0
  1  2  1  0
  3  4  4  0
  4  5  4  0
  5  6  4  0
  5 22  1  0
  6  7  1  0
  6 14  4  0
  7  8  1  0
  8  9  4  0
  8 12  4  0
  9 10  4  0
 10 11  4  0
 11 12  4  0
 12 13  1  0
 13 14  1  0
 13 15  1  6
 15 16  4  0
 15 20  4  0
 16 17  4  0
 17 18  4  0
 17 21  1  0
 18 19  4  0
 19 20  4  0
 23 24  4  0
 24 25  4  0
 25 26  4  0
 26 27  1  0
 27 28  1  0
 28 29  1  0
 29 30  1  0
 30 31  4  0
 31 32  4  0
 32 33  4  0
 33 34  1  0
 34 35  4  0
 35 36  4  0
 36 37  4  0
 37 38  4  0
 33 39  4  0
 39 40  1  0
 40 41  1  0
 41 42  1  0
 42 43  1  0
 43 44  1  0
 44 45  1  0
 27 46  1  0
 46 47  1  0
 39 30  4  0
 45 41  1  0
 47 25  1  0
 38 34  4  0
  2 23  4  0
  2 26  4  0
M  END
$$$$

     RDKit          3D

 47 55  0  0  0  0  0  0  0  0999 V2000
   -7.6410    4.9930    6.8080 C   0  0  0  0  0  0  0  0  0  1  0  0
   -7.7310    4.0530    5.7140 C   0  0  0  0  0  0  0  0  0  2  0  0
   -6.4520    5.6300    6.8680 N   0  0  0  0  0  0  0  0  0  0  0  0
   -6.2260    6.5240    7.8670 N   0  0  0  0  0  0  0  0  0  0  0  0
   -7.1930    6.7500    8.7820 C   0  0  0  0  0  0  0  0  0  0  0  0
   -8.4240    6.1170    8.7580 C   0  0  0  0  0  0  0  0  0  0  0  0
   -9.3950    6.3570    9.7450 N   0  0  0  0  0  0  0  0  0  0  0  0
  -10.5620    5.6840    9.7600 C   0  0  0  0  0  0  0  0  0  0  0  0
  -11.5770    5.6820   10.5960 N   0  0  0  0  0  0  0  0  0  0  0  0
  -12.4690    4.7490   10.1080 N   0  0  0  0  0  0  0  0  0  0  0  0
  -12.0160    4.1880    8.9920 N   0  0  0  0  0  0  0  0  0  0  0  0
  -10.8400    4.7900    8.7610 N   0  0  0  0  0  0  0  0  0  0  0  0
   -9.9950    4.4790    7.6090 C   0  0  0  0  0  0  0  0  0  0  0  0
   -8.6630    5.2070    7.7200 C   0  0  0  0  0  0  0  0  0  0  0  0
  -10.7490    4.8610    6.3730 C   0  0  0  0  0  0  0  0  0  0  0  0
  -11.0350    6.2020    6.1170 C   0  0  0  0  0  0  0  0  0  0  0  0
  -11.7370    6.5580    4.9650 C   0  0  0  0  0  0  0  0  0  0  0  0
  -12.1550    5.5730    4.0710 C   0  0  0  0  0  0  0  0  0  0  0  0
  -11.8700    4.2310    4.3270 C   0  0  0  0  0  0  0  0  0  0  0  0
  -11.1660    3.8760    5.4790 C   0  0  0  0  0  0  0  0  0  0  0  0
  -12.0160    7.8660    4.7150 O   0  0  0  0  0  0  0  0  0  0  0  0
   -6.8990    7.6510    9.7710 O   0  0  0  0  0  0  0  0  0  0  0  0
   -6.7571    3.2844    5.1778 N   0  0  0  0  0  0  0  0  0  0  0  0
   -7.2468    2.5702    4.1695 N   0  0  0  0  0  0  0  0  0  0  0  0
   -8.5636    2.8527    4.1185 C   0  0  0  0  0  0  0  0  0  0  0  0
   -8.9292    3.7354    5.0241 N   0  0  0  0  0  0  0  0  0  0  0  0
  -10.2317    4.3625    4.8653 C   0  0  0  0  0  0  0  0  0  0  0  0
  -10.1215    5.8835    4.6447 C   0  0  0  0  0  0  0  0  0  0  0  0
   -8.9031    6.3034    3.3461 S   0  0  0  0  0  0  0  0  0  0  0  0
   -9.6552    7.8864    2.9651 C   0  0  0  0  0  0  0  0  0  0  0  0
  -10.5117    8.0525    1.9443 N   0  0  0  0  0  0  0  0  0  0  0  0
  -10.7516    9.3512    1.8517 N   0  0  0  0  0  0  0  0  0  0  0  0
  -10.0388    9.9572    2.8218 C   0  0  0  0  0  0  0  0  0  1  0  0
   -9.9653   11.4190    2.9481 C   0  0  0  0  0  0  0  0  0  2  0  0
  -10.0315   12.1710    4.1169 C   0  0  0  0  0  0  0  0  0  0  0  0
   -9.9662   13.5512    3.8851 C   0  0  0  0  0  0  0  0  0  0  0  0
   -9.8548   13.8917    2.5400 C   0  0  0  0  0  0  0  0  0  0  0  0
   -9.8471   12.4716    1.6410 S   0  0  0  0  0  0  0  0  0  0  0  0
   -9.3420    9.0597    3.5554 N   0  0  0  0  0  0  0  0  0  0  0  0
   -8.3138    9.2865    4.5780 C   0  0  0  0  0  0  0  0  0  0  0  0
   -6.9333    9.4784    3.9324 C   0  0  0  0  0  0  0  0  0  0  0  0
   -5.8309    9.6180    4.9801 C   0  0  0  0  0  0  0  0  0  0  0  0
   -4.8987   10.6043    4.3441 C   0  0  0  0  0  0  0  0  0  0  0  0
   -5.8304   11.4198    3.4709 C   0  0  0  0  0  0  0  0  0  0  0  0
   -6.9384   10.6268    3.1073 O   0  0  0  0  0  0  0  0  0  0  0  0
  -10.8973    3.6548    3.6467 C   0  0  0  0  0  0  0  0  0  0  0  0
   -9.7035    2.5098    2.8133 S   0  0  0  0  0  0  0  0  0  0  0  0
  1  3  4  0
  1 14  4  0
  1  2  1  0
  3  4  4  0
  4  5  4  0
  5  6  4  0
  5 22  1  0
  6  7  1  0
  6 14  4  0
  7  8  1  0
  8  9  4  0
  8 12  4  0
  9 10  4  0
 10 11  4  0
 11 12  4  0
 12 13  1  0
 13 14  1  0
 13 15  1  6
 15 16  4  0
 15 20  4  0
 16 17  4  0
 17 18  4  0
 17 21  1  0
 18 19  4  0
 19 20  4  0
 23 24  4  0
 24 25  4  0
 25 26  4  0
 26 27  1  0
 27 28  1  0
 28 29  1  0
 29 30  1  0
 30 31  4  0
 31 32  4  0
 32 33  4  0
 33 34  1  0
 34 35  4  0
 35 36  4  0
 36 37  4  0
 37 38  4  0
 33 39  4  0
 39 40  1  0
 40 41  1  0
 41 42  1  0
 42 43  1  0
 43 44  1  0
 44 45  1  0
 27 46  1  0
 46 47  1  0
 39 30  4  0
 45 41  1  0
 47 25  1  0
 38 34  4  0
  2 23  4  0
  2 26  4  0
M  END
$$$$

     RDKit          3D

 39 45  0  0  0  0  0  0  0  0999 V2000
   -7.6410    4.9930    6.8080 C   0  0  0  0  0  0  0  0  0  1  0  0
   -7.7310    4.0530    5.7140 C   0  0  0  0  0  0  0  0  0  2  0  0
   -6.4520    5.6300    6.8680 N   0  0  0  0  0  0  0  0  0  0  0  0
   -6.2260    6.5240    7.8670 N   0  0  0  0  0  0  0  0  0  0  0  0
   -7.1930    6.7500    8.7820 C   0  0  0  0  0  0  0  0  0  0  0  0
   -8.4240    6.1170    8.7580 C   0  0  0  0  0  0  0  0  0  0  0  0
   -9.3950    6.3570    9.7450 N   0  0  0  0  0  0  0  0  0  0  0  0
  -10.5620    5.6840    9.7600 C   0  0  0  0  0  0  0  0  0  0  0  0
  -11.5770    5.6820   10.5960 N   0  0  0  0  0  0  0  0  0  0  0  0
  -12.4690    4.7490   10.1080 N   0  0  0  0  0  0  0  0  0  0  0  0
  -12.0160    4.1880    8.9920 N   0  0  0  0  0  0  0  0  0  0  0  0
  -10.8400    4.7900    8.7610 N   0  0  0  0  0  0  0  0  0  0  0  0
   -9.9950    4.4790    7.6090 C   0  0  0  0  0  0  0  0  0  0  0  0
   -8.6630    5.2070    7.7200 C   0  0  0  0  0  0  0  0  0  0  0  0
  -10.7490    4.8610    6.3730 C   0  0  0  0  0  0  0  0  0  0  0  0
  -11.0350    6.2020    6.1170 C   0  0  0  0  0  0  0  0  0  0  0  0
  -11.7370    6.5580    4.9650 C   0  0  0  0  0  0  0  0  0  0  0  0
  -12.1550    5.5730    4.0710 C   0  0  0  0  0  0  0  0  0  0  0  0
  -11.8700    4.2310    4.3270 C   0  0  0  0  0  0  0  0  0  0  0  0
  -11.1660    3.8760    5.4790 C   0  0  0  0  0  0  0  0  0  0  0  0
  -12.0160    7.8660    4.7150 O   0  0  0  0  0  0  0  0  0  0  0  0
   -6.8990    7.6510    9.7710 O   0  0  0  0  0  0  0  0  0  0  0  0
   -6.7892    3.1491    5.3911 N   0  0  0  0  0  0  0  0  0  0  0  0
   -6.8825    2.1773    4.4814 N   0  0  0  0  0  0  0  0  0  0  0  0
   -5.6839    1.3678    4.2248 C   0  0  0  0  0  0  0  0  0  0  0  0
   -4.7022    2.1301    3.3294 C   0  0  0  0  0  0  0  0  0  0  0  0
   -5.3047    2.4332    2.0327 N   0  0  0  0  0  0  0  0  0  0  0  0
   -5.6013    1.5628    1.0540 C   0  0  0  0  0  0  0  0  0  0  0  0
   -6.1520    2.2737    0.0114 C   0  0  0  0  0  0  0  0  0  0  0  0
   -6.1978    3.5841    0.3306 N   0  0  0  0  0  0  0  0  0  0  0  0
   -5.6695    3.6446    1.5709 C   0  0  0  0  0  0  0  0  0  0  0  0
   -8.0467    1.9834    3.7874 C   0  0  0  0  0  0  0  0  0  0  0  0
   -8.1335    1.0554    2.9349 O   0  0  0  0  0  0  0  0  0  0  0  0
   -9.1439    2.8311    4.0186 C   0  0  0  0  0  0  0  0  0  0  0  0
  -10.3470    2.6783    3.3010 C   0  0  0  0  0  0  0  0  0  0  0  0
  -11.4099    3.5575    3.5089 C   0  0  0  0  0  0  0  0  0  0  0  0
  -11.2833    4.6045    4.4197 C   0  0  0  0  0  0  0  0  0  0  0  0
  -10.1001    4.7685    5.1425 C   0  0  0  0  0  0  0  0  0  0  0  0
   -9.0255    3.8694    4.9738 C   0  0  0  0  0  0  0  0  0  0  0  0
  1  3  4  0
  1 14  4  0
  1  2  1  0
  3  4  4  0
  4  5  4  0
  5  6  4  0
  5 22  1  0
  6  7  1  0
  6 14  4  0
  7  8  1  0
  8  9  4  0
  8 12  4  0
  9 10  4  0
 10 11  4  0
 11 12  4  0
 12 13  1  0
 13 14  1  0
 13 15  1  6
 15 16  4  0
 15 20  4  0
 16 17  4  0
 17 18  4  0
 17 21  1  0
 18 19  4  0
 19 20  4  0
 23 24  4  0
 24 25  1  0
 25 26  1  0
 26 27  1  0
 27 28  4  0
 28 29  4  0
 29 30  4  0
 30 31  4  0
 24 32  4  0
 32 33  2  0
 32 34  4  0
 34 35  4  0
 35 36  4  0
 36 37  4  0
 37 38  4  0
 38 39  4  0
 31 27  4  0
 39 34  4  0
  2 23  4  0
  2 39  4  0
M  END
$$$$

     RDKit          3D

 39 45  0  0  0  0  0  0  0  0999 V2000
   -7.6410    4.9930    6.8080 C   0  0  0  0  0  0  0  0  0  1  0  0
   -7.7310    4.0530    5.7140 C   0  0  0  0  0  0  0  0  0  2  0  0
   -6.4520    5.6300    6.8680 N   0  0  0  0  0  0  0  0  0  0  0  0
   -6.2260    6.5240    7.8670 N   0  0  0  0  0  0  0  0  0  0  0  0
   -7.1930    6.7500    8.7820 C   0  0  0  0  0  0  0  0  0  0  0  0
   -8.4240    6.1170    8.7580 C   0  0  0  0  0  0  0  0  0  0  0  0
   -9.3950    6.3570    9.7450 N   0  0  0  0  0  0  0  0  0  0  0  0
  -10.5620    5.6840    9.7600 C   0  0  0  0  0  0  0  0  0  0  0  0
  -11.5770    5.6820   10.5960 N   0  0  0  0  0  0  0  0  0  0  0  0
  -12.4690    4.7490   10.1080 N   0  0  0  0  0  0  0  0  0  0  0  0
  -12.0160    4.1880    8.9920 N   0  0  0  0  0  0  0  0  0  0  0  0
  -10.8400    4.7900    8.7610 N   0  0  0  0  0  0  0  0  0  0  0  0
   -9.9950    4.4790    7.6090 C   0  0  0  0  0  0  0  0  0  0  0  0
   -8.6630    5.2070    7.7200 C   0  0  0  0  0  0  0  0  0  0  0  0
  -10.7490    4.8610    6.3730 C   0  0  0  0  0  0  0  0  0  0  0  0
  -11.0350    6.2020    6.1170 C   0  0  0  0  0  0  0  0  0  0  0  0
  -11.7370    6.5580    4.9650 C   0  0  0  0  0  0  0  0  0  0  0  0
  -12.1550    5.5730    4.0710 C   0  0  0  0  0  0  0  0  0  0  0  0
  -11.8700    4.2310    4.3270 C   0  0  0  0  0  0  0  0  0  0  0  0
  -11.1660    3.8760    5.4790 C   0  0  0  0  0  0  0  0  0  0  0  0
  -12.0160    7.8660    4.7150 O   0  0  0  0  0  0  0  0  0  0  0  0
   -6.8990    7.6510    9.7710 O   0  0  0  0  0  0  0  0  0  0  0  0
   -6.7944    3.1395    5.3995 N   0  0  0  0  0  0  0  0  0  0  0  0
   -6.8918    2.1659    4.4922 N   0  0  0  0  0  0  0  0  0  0  0  0
   -5.7090    1.3321    4.2494 C   0  0  0  0  0  0  0  0  0  0  0  0
   -4.8783    1.9174    3.1003 C   0  0  0  0  0  0  0  0  0  0  0  0
   -3.6587    1.1503    2.8219 N   0  0  0  0  0  0  0  0  0  0  0  0
   -2.7418    1.4712    1.8949 C   0  0  0  0  0  0  0  0  0  0  0  0
   -1.7463    0.5222    1.9289 C   0  0  0  0  0  0  0  0  0  0  0  0
   -2.0311   -0.3968    2.8729 N   0  0  0  0  0  0  0  0  0  0  0  0
   -3.2036    0.0155    3.3982 C   0  0  0  0  0  0  0  0  0  0  0  0
   -8.0489    1.9870    3.7837 C   0  0  0  0  0  0  0  0  0  0  0  0
   -8.1303    1.0658    2.9225 O   0  0  0  0  0  0  0  0  0  0  0  0
   -9.1426    2.8407    4.0097 C   0  0  0  0  0  0  0  0  0  0  0  0
  -10.3429    2.6960    3.2854 C   0  0  0  0  0  0  0  0  0  0  0  0
  -11.4025    3.5796    3.4910 C   0  0  0  0  0  0  0  0  0  0  0  0
  -11.2752    4.6234    4.4054 C   0  0  0  0  0  0  0  0  0  0  0  0
  -10.0943    4.7805    5.1336 C   0  0  0  0  0  0  0  0  0  0  0  0
   -9.0232    3.8764    4.9679 C   0  0  0  0  0  0  0  0  0  0  0  0
  1  3  4  0
  1 14  4  0
  1  2  1  0
  3  4  4  0
  4  5  4  0
  5  6  4  0
  5 22  1  0
  6  7  1  0
  6 14  4  0
  7  8  1  0
  8  9  4  0
  8 12  4  0
  9 10  4  0
 10 11  4  0
 11 12  4  0
 12 13  1  0
 13 14  1  0
 13 15  1  6
 15 16  4  0
 15 20  4  0
 16 17  4  0
 17 18  4  0
 17 21  1  0
 18 19  4  0
 19 20  4  0
 23 24  4  0
 24 25  1  0
 25 26  1  0
 26 27  1  0
 27 28  4  0
 28 29  4  0
 29 30  4  0
 30 31  4  0
 24 32  4  0
 32 33  2  0
 32 34  4  0
 34 35  4  0
 35 36  4  0
 36 37  4  0
 37 38  4  0
 38 39  4  0
 31 27  4  0
 39 34  4  0
  2 23  4  0
  2 39  4  0
M  END
$$$$

     RDKit          3D

 39 45  0  0  0  0  0  0  0  0999 V2000
   -7.6410    4.9930    6.8080 C   0  0  0  0  0  0  0  0  0  1  0  0
   -7.7310    4.0530    5.7140 C   0  0  0  0  0  0  0  0  0  2  0  0
   -6.4520    5.6300    6.8680 N   0  0  0  0  0  0  0  0  0  0  0  0
   -6.2260    6.5240    7.8670 N   0  0  0  0  0  0  0  0  0  0  0  0
   -7.1930    6.7500    8.7820 C   0  0  0  0  0  0  0  0  0  0  0  0
   -8.4240    6.1170    8.7580 C   0  0  0  0  0  0  0  0  0  0  0  0
   -9.3950    6.3570    9.7450 N   0  0  0  0  0  0  0  0  0  0  0  0
  -10.5620    5.6840    9.7600 C   0  0  0  0  0  0  0  0  0  0  0  0
  -11.5770    5.6820   10.5960 N   0  0  0  0  0  0  0  0  0  0  0  0
  -12.4690    4.7490   10.1080 N   0  0  0  0  0  0  0  0  0  0  0  0
  -12.0160    4.1880    8.9920 N   0  0  0  0  0  0  0  0  0  0  0  0
  -10.8400    4.7900    8.7610 N   0  0  0  0  0  0  0  0  0  0  0  0
   -9.9950    4.4790    7.6090 C   0  0  0  0  0  0  0  0  0  0  0  0
   -8.6630    5.2070    7.7200 C   0  0  0  0  0  0  0  0  0  0  0  0
  -10.7490    4.8610    6.3730 C   0  0  0  0  0  0  0  0  0  0  0  0
  -11.0350    6.2020    6.1170 C   0  0  0  0  0  0  0  0  0  0  0  0
  -11.7370    6.5580    4.9650 C   0  0  0  0  0  0  0  0  0  0  0  0
  -12.1550    5.5730    4.0710 C   0  0  0  0  0  0  0  0  0  0  0  0
  -11.8700    4.2310    4.3270 C   0  0  0  0  0  0  0  0  0  0  0  0
  -11.1660    3.8760    5.4790 C   0  0  0  0  0  0  0  0  0  0  0  0
  -12.0160    7.8660    4.7150 O   0  0  0  0  0  0  0  0  0  0  0  0
   -6.8990    7.6510    9.7710 O   0  0  0  0  0  0  0  0  0  0  0  0
   -6.7904    3.1465    5.3930 N   0  0  0  0  0  0  0  0  0  0  0  0
   -6.8871    2.1718    4.4869 N   0  0  0  0  0  0  0  0  0  0  0  0
   -5.7017    1.3427    4.2401 C   0  0  0  0  0  0  0  0  0  0  0  0
   -4.8910    1.9144    3.0697 C   0  0  0  0  0  0  0  0  0  0  0  0
   -3.6768    1.1427    2.7806 N   0  0  0  0  0  0  0  0  0  0  0  0
   -3.2017    0.0347    3.3821 C   0  0  0  0  0  0  0  0  0  0  0  0
   -2.0294   -0.3200    2.7549 C   0  0  0  0  0  0  0  0  0  0  0  0
   -1.7635    0.5550    1.7645 N   0  0  0  0  0  0  0  0  0  0  0  0
   -2.7882    1.4315    1.8098 C   0  0  0  0  0  0  0  0  0  0  0  0
   -8.0481    1.9830    3.7875 C   0  0  0  0  0  0  0  0  0  0  0  0
   -8.1293    1.0593    2.9292 O   0  0  0  0  0  0  0  0  0  0  0  0
   -9.1459    2.8296    4.0200 C   0  0  0  0  0  0  0  0  0  0  0  0
  -10.3501    2.6753    3.3046 C   0  0  0  0  0  0  0  0  0  0  0  0
  -11.4140    3.5526    3.5155 C   0  0  0  0  0  0  0  0  0  0  0  0
  -11.2872    4.5992    4.4266 C   0  0  0  0  0  0  0  0  0  0  0  0
  -10.1027    4.7650    5.1471 C   0  0  0  0  0  0  0  0  0  0  0  0
   -9.0271    3.8675    4.9759 C   0  0  0  0  0  0  0  0  0  0  0  0
  1  3  4  0
  1 14  4  0
  1  2  1  0
  3  4  4  0
  4  5  4  0
  5  6  4  0
  5 22  1  0
  6  7  1  0
  6 14  4  0
  7  8  1  0
  8  9  4  0
  8 12  4  0
  9 10  4  0
 10 11  4  0
 11 12  4  0
 12 13  1  0
 13 14  1  0
 13 15  1  6
 15 16  4  0
 15 20  4  0
 16 17  4  0
 17 18  4  0
 17 21  1  0
 18 19  4  0
 19 20  4  0
 23 24  4  0
 24 25  1  0
 25 26  1  0
 26 27  1  0
 27 28  4  0
 28 29  4  0
 29 30  4  0
 30 31  4  0
 24 32  4  0
 32 33  2  0
 32 34  4  0
 34 35  4  0
 35 36  4  0
 36 37  4  0
 37 38  4  0
 38 39  4  0
 31 27  4  0
 39 34  4  0
  2 23  4  0
  2 39  4  0
M  END
$$$$

     RDKit          3D

 41 47  0  0  0  0  0  0  0  0999 V2000
   -7.6410    4.9930    6.8080 C   0  0  0  0  0  0  0  0  0  1  0  0
   -7.7310    4.0530    5.7140 C   0  0  0  0  0  0  0  0  0  2  0  0
   -6.4520    5.6300    6.8680 N   0  0  0  0  0  0  0  0  0  0  0  0
   -6.2260    6.5240    7.8670 N   0  0  0  0  0  0  0  0  0  0  0  0
   -7.1930    6.7500    8.7820 C   0  0  0  0  0  0  0  0  0  0  0  0
   -8.4240    6.1170    8.7580 C   0  0  0  0  0  0  0  0  0  0  0  0
   -9.3950    6.3570    9.7450 N   0  0  0  0  0  0  0  0  0  0  0  0
  -10.5620    5.6840    9.7600 C   0  0  0  0  0  0  0  0  0  0  0  0
  -11.5770    5.6820   10.5960 N   0  0  0  0  0  0  0  0  0  0  0  0
  -12.4690    4.7490   10.1080 N   0  0  0  0  0  0  0  0  0  0  0  0
  -12.0160    4.1880    8.9920 N   0  0  0  0  0  0  0  0  0  0  0  0
  -10.8400    4.7900    8.7610 N   0  0  0  0  0  0  0  0  0  0  0  0
   -9.9950    4.4790    7.6090 C   0  0  0  0  0  0  0  0  0  0  0  0
   -8.6630    5.2070    7.7200 C   0  0  0  0  0  0  0  0  0  0  0  0
  -10.7490    4.8610    6.3730 C   0  0  0  0  0  0  0  0  0  0  0  0
  -11.0350    6.2020    6.1170 C   0  0  0  0  0  0  0  0  0  0  0  0
  -11.7370    6.5580    4.9650 C   0  0  0  0  0  0  0  0  0  0  0  0
  -12.1550    5.5730    4.0710 C   0  0  0  0  0  0  0  0  0  0  0  0
  -11.8700    4.2310    4.3270 C   0  0  0  0  0  0  0  0  0  0  0  0
  -11.1660    3.8760    5.4790 C   0  0  0  0  0  0  0  0  0  0  0  0
  -12.0160    7.8660    4.7150 O   0  0  0  0  0  0  0  0  0  0  0  0
   -6.8990    7.6510    9.7710 O   0  0  0  0  0  0  0  0  0  0  0  0
   -6.8407    3.0503    5.4668 N   0  0  0  0  0  0  0  0  0  0  0  0
   -7.1198    2.2710    4.3957 C   0  0  0  0  0  0  0  0  0  1  0  0
   -6.2330    1.1622    3.9478 C   0  0  0  0  0  0  0  0  0  2  0  0
   -5.0156    0.9468    4.6149 C   0  0  0  0  0  0  0  0  0  0  0  0
   -4.1674   -0.0860    4.2102 C   0  0  0  0  0  0  0  0  0  0  0  0
   -2.9437   -0.3265    4.8534 C   0  0  0  0  0  0  0  0  0  0  0  0
   -2.1210   -1.3707    4.4182 C   0  0  0  0  0  0  0  0  0  0  0  0
   -2.5152   -2.1750    3.3439 C   0  0  0  0  0  0  0  0  0  0  0  0
   -3.7340   -1.9393    2.6996 C   0  0  0  0  0  0  0  0  0  0  0  0
   -4.5634   -0.8967    3.1284 C   0  0  0  0  0  0  0  0  0  0  0  0
   -5.7205   -0.6747    2.5160 O   0  0  0  0  0  0  0  0  0  0  0  0
   -6.5542    0.2987    2.8730 C   0  0  0  0  0  0  0  0  0  0  0  0
   -7.6320    0.4280    2.2356 O   0  0  0  0  0  0  0  0  0  0  0  0
   -8.5543    2.7748    3.6656 S   0  0  0  0  0  0  0  0  0  0  0  0
   -8.8414    4.0073    4.7718 C   0  0  0  0  0  0  0  0  0  0  0  0
   -9.9361    5.0275    4.6288 C   0  0  0  0  0  0  0  0  0  0  0  0
   -9.4319    6.3259    4.0698 C   0  0  0  0  0  0  0  0  0  0  0  0
  -10.2305    7.2875    3.9223 O   0  0  0  0  0  0  0  0  0  0  0  0
   -8.0990    6.4862    3.7051 O   0  0  0  0  0  0  0  0  0  0  0  0
  1  3  4  0
  1 14  4  0
  1  2  1  0
  3  4  4  0
  4  5  4  0
  5  6  4  0
  5 22  1  0
  6  7  1  0
  6 14  4  0
  7  8  1  0
  8  9  4  0
  8 12  4  0
  9 10  4  0
 10 11  4  0
 11 12  4  0
 12 13  1  0
 13 14  1  0
 13 15  1  6
 15 16  4  0
 15 20  4  0
 16 17  4  0
 17 18  4  0
 17 21  1  0
 18 19  4  0
 19 20  4  0
 23 24  4  0
 24 25  1  0
 25 26  4  0
 26 27  4  0
 27 28  4  0
 28 29  4  0
 29 30  4  0
 30 31  4  0
 31 32  4  0
 32 33  4  0
 33 34  4  0
 34 35  2  0
 24 36  4  0
 36 37  4  0
 37 38  1  0
 38 39  1  0
 39 40  2  0
 39 41  1  0
 34 25  4  0
 32 27  4  0
  2 23  4  0
  2 37  4  0
M  CHG  1  41  -1
M  END
$$$$

     RDKit          3D

 49 55  0  0  0  0  0  0  0  0999 V2000
   -7.6410    4.9930    6.8080 C   0  0  0  0  0  0  0  0  0  1  0  0
   -7.7310    4.0530    5.7140 C   0  0  0  0  0  0  0  0  0  2  0  0
   -6.4520    5.6300    6.8680 N   0  0  0  0  0  0  0  0  0  0  0  0
   -6.2260    6.5240    7.8670 N   0  0  0  0  0  0  0  0  0  0  0  0
   -7.1930    6.7500    8.7820 C   0  0  0  0  0  0  0  0  0  0  0  0
   -8.4240    6.1170    8.7580 C   0  0  0  0  0  0  0  0  0  0  0  0
   -9.3950    6.3570    9.7450 N   0  0  0  0  0  0  0  0  0  0  0  0
  -10.5620    5.6840    9.7600 C   0  0  0  0  0  0  0  0  0  0  0  0
  -11.5770    5.6820   10.5960 N   0  0  0  0  0  0  0  0  0  0  0  0
  -12.4690    4.7490   10.1080 N   0  0  0  0  0  0  0  0  0  0  0  0
  -12.0160    4.1880    8.9920 N   0  0  0  0  0  0  0  0  0  0  0  0
  -10.8400    4.7900    8.7610 N   0  0  0  0  0  0  0  0  0  0  0  0
   -9.9950    4.4790    7.6090 C   0  0  0  0  0  0  0  0  0  0  0  0
   -8.6630    5.2070    7.7200 C   0  0  0  0  0  0  0  0  0  0  0  0
  -10.7490    4.8610    6.3730 C   0  0  0  0  0  0  0  0  0  0  0  0
  -11.0350    6.2020    6.1170 C   0  0  0  0  0  0  0  0  0  0  0  0
  -11.7370    6.5580    4.9650 C   0  0  0  0  0  0  0  0  0  0  0  0
  -12.1550    5.5730    4.0710 C   0  0  0  0  0  0  0  0  0  0  0  0
  -11.8700    4.2310    4.3270 C   0  0  0  0  0  0  0  0  0  0  0  0
  -11.1660    3.8760    5.4790 C   0  0  0  0  0  0  0  0  0  0  0  0
  -12.0160    7.8660    4.7150 O   0  0  0  0  0  0  0  0  0  0  0  0
   -6.8990    7.6510    9.7710 O   0  0  0  0  0  0  0  0  0  0  0  0
   -6.8953    2.9412    5.5102 C   0  0  0  0  0  0  0  0  0  0  0  0
   -7.4172    1.9782    4.2232 S   0  0  0  0  0  0  0  0  0  0  0  0
   -8.7619    2.9164    3.8859 C   0  0  0  0  0  0  0  0  0  0  0  0
   -9.6579    2.7122    2.8962 N   0  0  0  0  0  0  0  0  0  0  0  0
  -10.6809    3.5950    2.7375 C   0  0  0  0  0  0  0  0  0  0  0  0
  -10.8019    4.6888    3.5608 N   0  0  0  0  0  0  0  0  0  0  0  0
  -11.8969    5.6418    3.3183 C   0  0  0  0  0  0  0  0  0  0  0  0
  -11.4391    6.7426    2.3572 C   0  0  0  0  0  0  0  0  0  0  0  0
  -12.5499    7.7161    2.0917 C   0  0  0  0  0  0  0  0  0  0  0  0
  -12.9705    8.4461    3.0303 O   0  0  0  0  0  0  0  0  0  0  0  0
  -13.1261    7.8213    0.7828 N   0  0  0  0  0  0  0  0  0  0  0  0
  -14.1956    8.7761    0.4985 C   0  0  0  0  0  0  0  0  0  0  0  0
  -14.6301    8.6655   -0.8984 C   0  0  0  0  0  0  0  0  0  0  0  0
  -14.9873    8.5713   -2.0459 C   0  0  0  0  0  0  0  0  0  0  0  0
  -15.4139    8.4554   -3.4156 C   0  0  0  0  0  0  0  0  0  0  0  0
  -14.7503    9.1709   -4.4188 C   0  0  0  0  0  0  0  0  0  0  0  0
  -15.1530    9.0440   -5.7502 C   0  0  0  0  0  0  0  0  0  0  0  0
  -16.2232    8.2094   -6.0841 C   0  0  0  0  0  0  0  0  0  0  0  0
  -16.9166    7.5058   -5.0828 C   0  0  0  0  0  0  0  0  0  0  0  0
  -18.0389    6.5664   -5.4464 C   0  0  0  0  0  0  0  0  0  0  0  0
  -17.5198    5.3073   -5.6830 F   0  0  0  0  0  0  0  0  0  0  0  0
  -18.9620    6.4878   -4.4178 F   0  0  0  0  0  0  0  0  0  0  0  0
  -18.6956    7.0045   -6.5836 F   0  0  0  0  0  0  0  0  0  0  0  0
  -16.4876    7.6181   -3.7475 C   0  0  0  0  0  0  0  0  0  0  0  0
   -9.8761    4.9160    4.5542 C   0  0  0  0  0  0  0  0  0  0  0  0
   -9.9450    5.9552    5.2656 O   0  0  0  0  0  0  0  0  0  0  0  0
   -8.8397    3.9901    4.7470 C   0  0  0  0  0  0  0  0  0  0  0  0
  1  3  4  0
  1 14  4  0
  1  2  1  0
  3  4  4  0
  4  5  4  0
  5  6  4  0
  5 22  1  0
  6  7  1  0
  6 14  4  0
  7  8  1  0
  8  9  4  0
  8 12  4  0
  9 10  4  0
 10 11  4  0
 11 12  4  0
 12 13  1  0
 13 14  1  0
 13 15  1  6
 15 16  4  0
 15 20  4  0
 16 17  4  0
 17 18  4  0
 17 21  1  0
 18 19  4  0
 19 20  4  0
 23 24  4  0
 24 25  4  0
 25 26  4  0
 26 27  4  0
 27 28  4  0
 28 29  1  0
 29 30  1  0
 30 31  1  0
 31 32  2  0
 31 33  1  0
 33 34  1  0
 34 35  1  0
 35 36  3  0
 36 37  1  0
 37 38  4  0
 38 39  4  0
 39 40  4  0
 40 41  4  0
 41 42  1  0
 42 43  1  0
 42 44  1  0
 42 45  1  0
 41 46  4  0
 28 47  4  0
 47 48  2  0
 47 49  4  0
 49 25  4  0
 46 37  4  0
  2 23  4  0
  2 49  4  0
M  END
$$$$

     RDKit          3D

 43 49  0  0  0  0  0  0  0  0999 V2000
   -7.6410    4.9930    6.8080 C   0  0  0  0  0  0  0  0  0  1  0  0
   -7.7310    4.0530    5.7140 C   0  0  0  0  0  0  0  0  0  2  0  0
   -6.4520    5.6300    6.8680 N   0  0  0  0  0  0  0  0  0  0  0  0
   -6.2260    6.5240    7.8670 N   0  0  0  0  0  0  0  0  0  0  0  0
   -7.1930    6.7500    8.7820 C   0  0  0  0  0  0  0  0  0  0  0  0
   -8.4240    6.1170    8.7580 C   0  0  0  0  0  0  0  0  0  0  0  0
   -9.3950    6.3570    9.7450 N   0  0  0  0  0  0  0  0  0  0  0  0
  -10.5620    5.6840    9.7600 C   0  0  0  0  0  0  0  0  0  0  0  0
  -11.5770    5.6820   10.5960 N   0  0  0  0  0  0  0  0  0  0  0  0
  -12.4690    4.7490   10.1080 N   0  0  0  0  0  0  0  0  0  0  0  0
  -12.0160    4.1880    8.9920 N   0  0  0  0  0  0  0  0  0  0  0  0
  -10.8400    4.7900    8.7610 N   0  0  0  0  0  0  0  0  0  0  0  0
   -9.9950    4.4790    7.6090 C   0  0  0  0  0  0  0  0  0  0  0  0
   -8.6630    5.2070    7.7200 C   0  0  0  0  0  0  0  0  0  0  0  0
  -10.7490    4.8610    6.3730 C   0  0  0  0  0  0  0  0  0  0  0  0
  -11.0350    6.2020    6.1170 C   0  0  0  0  0  0  0  0  0  0  0  0
  -11.7370    6.5580    4.9650 C   0  0  0  0  0  0  0  0  0  0  0  0
  -12.1550    5.5730    4.0710 C   0  0  0  0  0  0  0  0  0  0  0  0
  -11.8700    4.2310    4.3270 C   0  0  0  0  0  0  0  0  0  0  0  0
  -11.1660    3.8760    5.4790 C   0  0  0  0  0  0  0  0  0  0  0  0
  -12.0160    7.8660    4.7150 O   0  0  0  0  0  0  0  0  0  0  0  0
   -6.8990    7.6510    9.7710 O   0  0  0  0  0  0  0  0  0  0  0  0
   -6.8823    3.0346    5.4361 N   0  0  0  0  0  0  0  0  0  0  0  0
   -7.3319    2.3773    4.3803 N   0  0  0  0  0  0  0  0  0  0  0  0
   -8.4810    2.9538    3.9920 C   0  0  0  0  0  0  0  0  0  0  0  0
   -9.3161    2.4903    2.6582 S   0  0  0  0  0  0  0  0  0  0  0  0
   -8.8082    3.9874    4.7996 N   0  0  0  0  0  0  0  0  0  0  0  0
   -9.8543    5.0008    4.5935 C   0  0  0  0  0  0  0  0  0  0  0  0
   -9.2737    6.2729    3.9637 C   0  0  0  0  0  0  0  0  0  0  0  0
   -8.7288    6.0015    2.5934 C   0  0  0  0  0  0  0  0  0  0  0  0
   -9.5235    5.9102    1.6196 O   0  0  0  0  0  0  0  0  0  0  0  0
   -7.3228    5.7820    2.4074 N   0  0  0  0  0  0  0  0  0  0  0  0
   -6.7786    5.4521    1.1540 N   0  0  0  0  0  0  0  0  0  0  0  0
   -7.0604    6.2201   -0.0245 C   0  0  0  0  0  0  0  0  0  0  0  0
   -7.5871    7.3609    0.0794 O   0  0  0  0  0  0  0  0  0  0  0  0
   -6.7246    5.6980   -1.3593 C   0  0  0  0  0  0  0  0  0  0  0  0
   -6.3682    4.3758   -1.6567 C   0  0  0  0  0  0  0  0  0  0  0  0
   -6.1705    4.2073   -3.0243 C   0  0  0  0  0  0  0  0  0  0  0  0
   -6.3539    5.3135   -3.7642 C   0  0  0  0  0  0  0  0  0  0  0  0
   -6.8061    6.6062   -2.7987 S   0  0  0  0  0  0  0  0  0  0  0  0
   -6.2584    5.0923   -5.2161 C   0  0  0  0  0  0  0  0  0  0  0  0
   -5.9395    3.5768   -5.2985 C   0  0  0  0  0  0  0  0  0  0  0  0
   -5.9020    3.0135   -3.8518 C   0  0  0  0  0  0  0  0  0  0  0  0
  1  3  4  0
  1 14  4  0
  1  2  1  0
  3  4  4  0
  4  5  4  0
  5  6  4  0
  5 22  1  0
  6  7  1  0
  6 14  4  0
  7  8  1  0
  8  9  4  0
  8 12  4  0
  9 10  4  0
 10 11  4  0
 11 12  4  0
 12 13  1  0
 13 14  1  0
 13 15  1  6
 15 16  4  0
 15 20  4  0
 16 17  4  0
 17 18  4  0
 17 21  1  0
 18 19  4  0
 19 20  4  0
 23 24  4  0
 24 25  4  0
 25 26  2  0
 25 27  4  0
 27 28  1  0
 28 29  1  0
 29 30  1  0
 30 31  2  0
 30 32  1  0
 32 33  1  0
 33 34  1  0
 34 35  2  0
 34 36  1  0
 36 37  4  0
 37 38  4  0
 38 39  4  0
 39 40  4  0
 39 41  1  0
 41 42  1  0
 42 43  1  0
 40 36  4  0
 43 38  1  0
  2 23  4  0
  2 27  4  0
M  END
$$$$

     RDKit          3D

 44 50  0  0  0  0  0  0  0  0999 V2000
   -7.6410    4.9930    6.8080 C   0  0  0  0  0  0  0  0  0  1  0  0
   -7.7310    4.0530    5.7140 C   0  0  0  0  0  0  0  0  0  2  0  0
   -6.4520    5.6300    6.8680 N   0  0  0  0  0  0  0  0  0  0  0  0
   -6.2260    6.5240    7.8670 N   0  0  0  0  0  0  0  0  0  0  0  0
   -7.1930    6.7500    8.7820 C   0  0  0  0  0  0  0  0  0  0  0  0
   -8.4240    6.1170    8.7580 C   0  0  0  0  0  0  0  0  0  0  0  0
   -9.3950    6.3570    9.7450 N   0  0  0  0  0  0  0  0  0  0  0  0
  -10.5620    5.6840    9.7600 C   0  0  0  0  0  0  0  0  0  0  0  0
  -11.5770    5.6820   10.5960 N   0  0  0  0  0  0  0  0  0  0  0  0
  -12.4690    4.7490   10.1080 N   0  0  0  0  0  0  0  0  0  0  0  0
  -12.0160    4.1880    8.9920 N   0  0  0  0  0  0  0  0  0  0  0  0
  -10.8400    4.7900    8.7610 N   0  0  0  0  0  0  0  0  0  0  0  0
   -9.9950    4.4790    7.6090 C   0  0  0  0  0  0  0  0  0  0  0  0
   -8.6630    5.2070    7.7200 C   0  0  0  0  0  0  0  0  0  0  0  0
  -10.7490    4.8610    6.3730 C   0  0  0  0  0  0  0  0  0  0  0  0
  -11.0350    6.2020    6.1170 C   0  0  0  0  0  0  0  0  0  0  0  0
  -11.7370    6.5580    4.9650 C   0  0  0  0  0  0  0  0  0  0  0  0
  -12.1550    5.5730    4.0710 C   0  0  0  0  0  0  0  0  0  0  0  0
  -11.8700    4.2310    4.3270 C   0  0  0  0  0  0  0  0  0  0  0  0
  -11.1660    3.8760    5.4790 C   0  0  0  0  0  0  0  0  0  0  0  0
  -12.0160    7.8660    4.7150 O   0  0  0  0  0  0  0  0  0  0  0  0
   -6.8990    7.6510    9.7710 O   0  0  0  0  0  0  0  0  0  0  0  0
   -6.7952    3.1744    5.3022 N   0  0  0  0  0  0  0  0  0  0  0  0
   -7.2670    2.4169    4.3253 N   0  0  0  0  0  0  0  0  0  0  0  0
   -6.4612    1.4546    3.5817 C   0  0  0  0  0  0  0  0  0  0  0  0
   -5.9013    2.1018    2.3450 C   0  0  0  0  0  0  0  0  0  0  0  0
   -6.3842    1.7510    1.0731 C   0  0  0  0  0  0  0  0  0  0  0  0
   -5.8697    2.3711   -0.0699 C   0  0  0  0  0  0  0  0  0  0  0  0
   -4.8720    3.3429    0.0486 C   0  0  0  0  0  0  0  0  0  0  0  0
   -4.3883    3.6978    1.3108 C   0  0  0  0  0  0  0  0  0  0  0  0
   -4.9004    3.0811    2.4562 C   0  0  0  0  0  0  0  0  0  0  0  0
   -8.5406    2.7541    4.0506 C   0  0  0  0  0  0  0  0  0  0  0  0
   -8.9138    3.7726    4.9059 C   0  0  0  0  0  0  0  0  0  0  0  0
  -10.1786    4.5323    4.8477 C   0  0  0  0  0  0  0  0  0  0  0  0
  -10.2310    5.6989    5.3227 O   0  0  0  0  0  0  0  0  0  0  0  0
  -11.3414    3.9570    4.2331 N   0  0  0  0  0  0  0  0  0  0  0  0
  -12.5767    4.7117    4.0312 C   0  0  0  0  0  0  0  0  0  0  0  0
  -12.4048    5.7266    2.8961 C   0  0  0  0  0  0  0  0  0  0  0  0
  -13.6948    6.4545    2.6215 C   0  0  0  0  0  0  0  0  0  0  0  0
  -14.2035    7.3781    3.5474 C   0  0  0  0  0  0  0  0  0  0  0  0
  -15.3984    8.0488    3.2812 C   0  0  0  0  0  0  0  0  0  0  0  0
  -16.0738    7.7946    2.0865 C   0  0  0  0  0  0  0  0  0  0  0  0
  -15.5677    6.9021    1.1949 N   0  0  0  0  0  0  0  0  0  0  0  0
  -14.4066    6.2344    1.4315 C   0  0  0  0  0  0  0  0  0  0  0  0
  1  3  4  0
  1 14  4  0
  1  2  1  0
  3  4  4  0
  4  5  4  0
  5  6  4  0
  5 22  1  0
  6  7  1  0
  6 14  4  0
  7  8  1  0
  8  9  4  0
  8 12  4  0
  9 10  4  0
 10 11  4  0
 11 12  4  0
 12 13  1  0
 13 14  1  0
 13 15  1  6
 15 16  4  0
 15 20  4  0
 16 17  4  0
 17 18  4  0
 17 21  1  0
 18 19  4  0
 19 20  4  0
 23 24  4  0
 24 25  1  0
 25 26  1  0
 26 27  4  0
 27 28  4  0
 28 29  4  0
 29 30  4  0
 30 31  4  0
 24 32  4  0
 32 33  4  0
 33 34  1  0
 34 35  2  0
 34 36  1  0
 36 37  1  0
 37 38  1  0
 38 39  1  0
 39 40  4  0
 40 41  4  0
 41 42  4  0
 42 43  4  0
 43 44  4  0
 44 39  4  0
 31 26  4  0
  2 23  4  0
  2 33  4  0
M  END
$$$$

     RDKit          3D

 44 50  0  0  0  0  0  0  0  0999 V2000
   -7.6410    4.9930    6.8080 C   0  0  0  0  0  0  0  0  0  1  0  0
   -7.7310    4.0530    5.7140 C   0  0  0  0  0  0  0  0  0  2  0  0
   -6.4520    5.6300    6.8680 N   0  0  0  0  0  0  0  0  0  0  0  0
   -6.2260    6.5240    7.8670 N   0  0  0  0  0  0  0  0  0  0  0  0
   -7.1930    6.7500    8.7820 C   0  0  0  0  0  0  0  0  0  0  0  0
   -8.4240    6.1170    8.7580 C   0  0  0  0  0  0  0  0  0  0  0  0
   -9.3950    6.3570    9.7450 N   0  0  0  0  0  0  0  0  0  0  0  0
  -10.5620    5.6840    9.7600 C   0  0  0  0  0  0  0  0  0  0  0  0
  -11.5770    5.6820   10.5960 N   0  0  0  0  0  0  0  0  0  0  0  0
  -12.4690    4.7490   10.1080 N   0  0  0  0  0  0  0  0  0  0  0  0
  -12.0160    4.1880    8.9920 N   0  0  0  0  0  0  0  0  0  0  0  0
  -10.8400    4.7900    8.7610 N   0  0  0  0  0  0  0  0  0  0  0  0
   -9.9950    4.4790    7.6090 C   0  0  0  0  0  0  0  0  0  0  0  0
   -8.6630    5.2070    7.7200 C   0  0  0  0  0  0  0  0  0  0  0  0
  -10.7490    4.8610    6.3730 C   0  0  0  0  0  0  0  0  0  0  0  0
  -11.0350    6.2020    6.1170 C   0  0  0  0  0  0  0  0  0  0  0  0
  -11.7370    6.5580    4.9650 C   0  0  0  0  0  0  0  0  0  0  0  0
  -12.1550    5.5730    4.0710 C   0  0  0  0  0  0  0  0  0  0  0  0
  -11.8700    4.2310    4.3270 C   0  0  0  0  0  0  0  0  0  0  0  0
  -11.1660    3.8760    5.4790 C   0  0  0  0  0  0  0  0  0  0  0  0
  -12.0160    7.8660    4.7150 O   0  0  0  0  0  0  0  0  0  0  0  0
   -6.8990    7.6510    9.7710 O   0  0  0  0  0  0  0  0  0  0  0  0
   -6.8332    3.1115    5.3607 N   0  0  0  0  0  0  0  0  0  0  0  0
   -7.3183    2.3559    4.3858 N   0  0  0  0  0  0  0  0  0  0  0  0
   -6.5778    1.2669    3.7610 C   0  0  0  0  0  0  0  0  0  0  0  0
   -5.8120    1.7679    2.5682 C   0  0  0  0  0  0  0  0  0  0  0  0
   -6.1021    1.2869    1.2804 C   0  0  0  0  0  0  0  0  0  0  0  0
   -5.3603    1.7259    0.1798 C   0  0  0  0  0  0  0  0  0  0  0  0
   -4.3273    2.6516    0.3536 C   0  0  0  0  0  0  0  0  0  0  0  0
   -4.0364    3.1409    1.6292 C   0  0  0  0  0  0  0  0  0  0  0  0
   -4.7732    2.6999    2.7347 C   0  0  0  0  0  0  0  0  0  0  0  0
   -8.5644    2.7520    4.0640 C   0  0  0  0  0  0  0  0  0  0  0  0
   -8.8951    3.8184    4.8731 C   0  0  0  0  0  0  0  0  0  0  0  0
  -10.1481    4.5925    4.8166 C   0  0  0  0  0  0  0  0  0  0  0  0
  -11.2342    3.9837    4.6209 O   0  0  0  0  0  0  0  0  0  0  0  0
  -10.1648    6.0192    4.9716 N   0  0  0  0  0  0  0  0  0  0  0  0
   -9.1315    6.8848    4.4000 C   0  0  0  0  0  0  0  0  0  0  0  0
   -9.3411    7.0617    2.8931 C   0  0  0  0  0  0  0  0  0  0  0  0
  -10.6041    7.8241    2.5818 C   0  0  0  0  0  0  0  0  0  0  0  0
  -11.6748    7.2019    1.9210 C   0  0  0  0  0  0  0  0  0  0  0  0
  -12.8137    7.9397    1.5991 C   0  0  0  0  0  0  0  0  0  0  0  0
  -12.8731    9.2943    1.9282 C   0  0  0  0  0  0  0  0  0  0  0  0
  -11.8347    9.8809    2.5729 N   0  0  0  0  0  0  0  0  0  0  0  0
  -10.7119    9.1878    2.9080 C   0  0  0  0  0  0  0  0  0  0  0  0
  1  3  4  0
  1 14  4  0
  1  2  1  0
  3  4  4  0
  4  5  4  0
  5  6  4  0
  5 22  1  0
  6  7  1  0
  6 14  4  0
  7  8  1  0
  8  9  4  0
  8 12  4  0
  9 10  4  0
 10 11  4  0
 11 12  4  0
 12 13  1  0
 13 14  1  0
 13 15  1  6
 15 16  4  0
 15 20  4  0
 16 17  4  0
 17 18  4  0
 17 21  1  0
 18 19  4  0
 19 20  4  0
 23 24  4  0
 24 25  1  0
 25 26  1  0
 26 27  4  0
 27 28  4  0
 28 29  4  0
 29 30  4  0
 30 31  4  0
 24 32  4  0
 32 33  4  0
 33 34  1  0
 34 35  2  0
 34 36  1  0
 36 37  1  0
 37 38  1  0
 38 39  1  0
 39 40  4  0
 40 41  4  0
 41 42  4  0
 42 43  4  0
 43 44  4  0
 44 39  4  0
 31 26  4  0
  2 23  4  0
  2 33  4  0
M  END
$$$$

     RDKit          3D

 30 34  0  0  0  0  0  0  0  0999 V2000
   -7.6410    4.9930    6.8080 C   0  0  0  0  0  0  0  0  0  1  0  0
   -7.7310    4.0530    5.7140 C   0  0  0  0  0  0  0  0  0  2  0  0
   -6.4520    5.6300    6.8680 N   0  0  0  0  0  0  0  0  0  0  0  0
   -6.2260    6.5240    7.8670 N   0  0  0  0  0  0  0  0  0  0  0  0
   -7.1930    6.7500    8.7820 C   0  0  0  0  0  0  0  0  0  0  0  0
   -8.4240    6.1170    8.7580 C   0  0  0  0  0  0  0  0  0  0  0  0
   -9.3950    6.3570    9.7450 N   0  0  0  0  0  0  0  0  0  0  0  0
  -10.5620    5.6840    9.7600 C   0  0  0  0  0  0  0  0  0  0  0  0
  -11.5770    5.6820   10.5960 N   0  0  0  0  0  0  0  0  0  0  0  0
  -12.4690    4.7490   10.1080 N   0  0  0  0  0  0  0  0  0  0  0  0
  -12.0160    4.1880    8.9920 N   0  0  0  0  0  0  0  0  0  0  0  0
  -10.8400    4.7900    8.7610 N   0  0  0  0  0  0  0  0  0  0  0  0
   -9.9950    4.4790    7.6090 C   0  0  0  0  0  0  0  0  0  0  0  0
   -8.6630    5.2070    7.7200 C   0  0  0  0  0  0  0  0  0  0  0  0
  -10.7490    4.8610    6.3730 C   0  0  0  0  0  0  0  0  0  0  0  0
  -11.0350    6.2020    6.1170 C   0  0  0  0  0  0  0  0  0  0  0  0
  -11.7370    6.5580    4.9650 C   0  0  0  0  0  0  0  0  0  0  0  0
  -12.1550    5.5730    4.0710 C   0  0  0  0  0  0  0  0  0  0  0  0
  -11.8700    4.2310    4.3270 C   0  0  0  0  0  0  0  0  0  0  0  0
  -11.1660    3.8760    5.4790 C   0  0  0  0  0  0  0  0  0  0  0  0
  -12.0160    7.8660    4.7150 O   0  0  0  0  0  0  0  0  0  0  0  0
   -6.8990    7.6510    9.7710 O   0  0  0  0  0  0  0  0  0  0  0  0
   -6.8421    2.9748    5.5431 C   0  0  0  0  0  0  0  0  0  0  0  0
   -6.9882    2.0329    4.5261 C   0  0  0  0  0  0  0  0  0  0  0  0
   -8.0393    2.1107    3.6711 N   0  0  0  0  0  0  0  0  0  0  0  0
   -8.9733    3.0931    3.7663 C   0  0  0  0  0  0  0  0  0  0  0  0
  -10.2895    3.1113    2.5993 Cl  0  0  0  0  0  0  0  0  0  0  0  0
   -8.8697    4.0684    4.7761 C   0  0  0  0  0  0  0  0  0  0  0  0
   -9.8349    5.1433    4.8400 C   0  0  0  0  0  0  0  0  0  0  0  0
  -10.6070    6.0039    4.8915 N   0  0  0  0  0  0  0  0  0  0  0  0
  1  3  4  0
  1 14  4  0
  1  2  1  0
  3  4  4  0
  4  5  4  0
  5  6  4  0
  5 22  1  0
  6  7  1  0
  6 14  4  0
  7  8  1  0
  8  9  4  0
  8 12  4  0
  9 10  4  0
 10 11  4  0
 11 12  4  0
 12 13  1  0
 13 14  1  0
 13 15  1  6
 15 16  4  0
 15 20  4  0
 16 17  4  0
 17 18  4  0
 17 21  1  0
 18 19  4  0
 19 20  4  0
 23 24  4  0
 24 25  4  0
 25 26  4  0
 26 27  1  0
 26 28  4  0
 28 29  1  0
 29 30  3  0
  2 23  4  0
  2 28  4  0
M  END
$$$$

     RDKit          3D

 31 35  0  0  0  0  0  0  0  0999 V2000
   -7.6410    4.9930    6.8080 C   0  0  0  0  0  0  0  0  0  1  0  0
   -7.7310    4.0530    5.7140 C   0  0  0  0  0  0  0  0  0  2  0  0
   -6.4520    5.6300    6.8680 N   0  0  0  0  0  0  0  0  0  0  0  0
   -6.2260    6.5240    7.8670 N   0  0  0  0  0  0  0  0  0  0  0  0
   -7.1930    6.7500    8.7820 C   0  0  0  0  0  0  0  0  0  0  0  0
   -8.4240    6.1170    8.7580 C   0  0  0  0  0  0  0  0  0  0  0  0
   -9.3950    6.3570    9.7450 N   0  0  0  0  0  0  0  0  0  0  0  0
  -10.5620    5.6840    9.7600 C   0  0  0  0  0  0  0  0  0  0  0  0
  -11.5770    5.6820   10.5960 N   0  0  0  0  0  0  0  0  0  0  0  0
  -12.4690    4.7490   10.1080 N   0  0  0  0  0  0  0  0  0  0  0  0
  -12.0160    4.1880    8.9920 N   0  0  0  0  0  0  0  0  0  0  0  0
  -10.8400    4.7900    8.7610 N   0  0  0  0  0  0  0  0  0  0  0  0
   -9.9950    4.4790    7.6090 C   0  0  0  0  0  0  0  0  0  0  0  0
   -8.6630    5.2070    7.7200 C   0  0  0  0  0  0  0  0  0  0  0  0
  -10.7490    4.8610    6.3730 C   0  0  0  0  0  0  0  0  0  0  0  0
  -11.0350    6.2020    6.1170 C   0  0  0  0  0  0  0  0  0  0  0  0
  -11.7370    6.5580    4.9650 C   0  0  0  0  0  0  0  0  0  0  0  0
  -12.1550    5.5730    4.0710 C   0  0  0  0  0  0  0  0  0  0  0  0
  -11.8700    4.2310    4.3270 C   0  0  0  0  0  0  0  0  0  0  0  0
  -11.1660    3.8760    5.4790 C   0  0  0  0  0  0  0  0  0  0  0  0
  -12.0160    7.8660    4.7150 O   0  0  0  0  0  0  0  0  0  0  0  0
   -6.8990    7.6510    9.7710 O   0  0  0  0  0  0  0  0  0  0  0  0
   -7.0065    2.8464    5.6959 C   0  0  0  0  0  0  0  0  0  0  0  0
   -7.1261    1.9040    4.6630 C   0  0  0  0  0  0  0  0  0  0  0  0
   -6.2511    0.6818    4.6685 C   0  0  0  0  0  0  0  0  0  0  0  0
   -8.0060    2.1486    3.5906 C   0  0  0  0  0  0  0  0  0  0  0  0
   -8.0716    1.2180    2.5402 O   0  0  0  0  0  0  0  0  0  0  0  0
   -8.9076    1.3502    1.3948 C   0  0  0  0  0  0  0  0  0  0  0  0
   -8.7855    3.3203    3.5943 C   0  0  0  0  0  0  0  0  0  0  0  0
   -8.6736    4.2506    4.6326 C   0  0  0  0  0  0  0  0  0  0  0  0
   -9.5925    5.7488    4.5179 Cl  0  0  0  0  0  0  0  0  0  0  0  0
  1  3  4  0
  1 14  4  0
  1  2  1  0
  3  4  4  0
  4  5  4  0
  5  6  4  0
  5 22  1  0
  6  7  1  0
  6 14  4  0
  7  8  1  0
  8  9  4  0
  8 12  4  0
  9 10  4  0
 10 11  4  0
 11 12  4  0
 12 13  1  0
 13 14  1  0
 13 15  1  6
 15 16  4  0
 15 20  4  0
 16 17  4  0
 17 18  4  0
 17 21  1  0
 18 19  4  0
 19 20  4  0
 23 24  4  0
 24 25  1  0
 24 26  4  0
 26 27  1  0
 27 28  1  0
 26 29  4  0
 29 30  4  0
 30 31  1  0
  2 23  4  0
  2 30  4  0
M  END
$$$$

     RDKit          3D

 41 47  0  0  0  0  0  0  0  0999 V2000
   -7.6410    4.9930    6.8080 C   0  0  0  0  0  0  0  0  0  1  0  0
   -7.7310    4.0530    5.7140 C   0  0  0  0  0  0  0  0  0  2  0  0
   -6.4520    5.6300    6.8680 N   0  0  0  0  0  0  0  0  0  0  0  0
   -6.2260    6.5240    7.8670 N   0  0  0  0  0  0  0  0  0  0  0  0
   -7.1930    6.7500    8.7820 C   0  0  0  0  0  0  0  0  0  0  0  0
   -8.4240    6.1170    8.7580 C   0  0  0  0  0  0  0  0  0  0  0  0
   -9.3950    6.3570    9.7450 N   0  0  0  0  0  0  0  0  0  0  0  0
  -10.5620    5.6840    9.7600 C   0  0  0  0  0  0  0  0  0  0  0  0
  -11.5770    5.6820   10.5960 N   0  0  0  0  0  0  0  0  0  0  0  0
  -12.4690    4.7490   10.1080 N   0  0  0  0  0  0  0  0  0  0  0  0
  -12.0160    4.1880    8.9920 N   0  0  0  0  0  0  0  0  0  0  0  0
  -10.8400    4.7900    8.7610 N   0  0  0  0  0  0  0  0  0  0  0  0
   -9.9950    4.4790    7.6090 C   0  0  0  0  0  0  0  0  0  0  0  0
   -8.6630    5.2070    7.7200 C   0  0  0  0  0  0  0  0  0  0  0  0
  -10.7490    4.8610    6.3730 C   0  0  0  0  0  0  0  0  0  0  0  0
  -11.0350    6.2020    6.1170 C   0  0  0  0  0  0  0  0  0  0  0  0
  -11.7370    6.5580    4.9650 C   0  0  0  0  0  0  0  0  0  0  0  0
  -12.1550    5.5730    4.0710 C   0  0  0  0  0  0  0  0  0  0  0  0
  -11.8700    4.2310    4.3270 C   0  0  0  0  0  0  0  0  0  0  0  0
  -11.1660    3.8760    5.4790 C   0  0  0  0  0  0  0  0  0  0  0  0
  -12.0160    7.8660    4.7150 O   0  0  0  0  0  0  0  0  0  0  0  0
   -6.8990    7.6510    9.7710 O   0  0  0  0  0  0  0  0  0  0  0  0
   -6.9868    2.8660    5.6100 C   0  0  0  0  0  0  0  0  0  0  0  0
   -7.4227    2.0114    4.2307 S   0  0  0  0  0  0  0  0  0  0  0  0
   -8.6055    3.1259    3.7814 C   0  0  0  0  0  0  0  0  0  0  0  0
   -9.3302    3.0553    2.7027 N   0  0  0  0  0  0  0  0  0  0  0  0
   -9.2480    1.9829    1.7534 C   0  0  0  0  0  0  0  0  0  0  0  0
   -8.4999    2.1527    0.5693 C   0  0  0  0  0  0  0  0  0  0  0  0
   -7.7927    3.4507    0.2925 C   0  0  0  0  0  0  0  0  0  0  0  0
   -8.4183    1.0991   -0.3543 C   0  0  0  0  0  0  0  0  0  0  0  0
   -9.0708   -0.1090   -0.1063 C   0  0  0  0  0  0  0  0  0  0  0  0
   -9.8220   -0.2755    1.0575 C   0  0  0  0  0  0  0  0  0  0  0  0
   -9.9337    0.7700    1.9871 C   0  0  0  0  0  0  0  0  0  0  0  0
  -10.7483    0.5696    3.2364 C   0  0  0  0  0  0  0  0  0  0  0  0
   -8.6891    4.1510    4.6682 N   0  0  0  0  0  0  0  0  0  0  0  0
   -9.5411    5.3342    4.4654 C   0  0  0  0  0  0  0  0  0  0  0  0
   -8.7439    6.4632    3.7971 C   0  0  0  0  0  0  0  0  0  0  0  0
   -9.5742    7.7280    3.6456 C   0  0  0  0  0  0  0  0  0  0  0  0
   -9.0259    8.3279    2.3900 C   0  0  0  0  0  0  0  0  0  0  0  0
   -8.5246    7.1188    1.6260 C   0  0  0  0  0  0  0  0  0  0  0  0
   -8.2966    6.0556    2.5229 O   0  0  0  0  0  0  0  0  0  0  0  0
  1  3  4  0
  1 14  4  0
  1  2  1  0
  3  4  4  0
  4  5  4  0
  5  6  4  0
  5 22  1  0
  6  7  1  0
  6 14  4  0
  7  8  1  0
  8  9  4  0
  8 12  4  0
  9 10  4  0
 10 11  4  0
 11 12  4  0
 12 13  1  0
 13 14  1  0
 13 15  1  6
 15 16  4  0
 15 20  4  0
 16 17  4  0
 17 18  4  0
 17 21  1  0
 18 19  4  0
 19 20  4  0
 23 24  4  0
 24 25  4  0
 25 26  2  3
 26 27  1  0
 27 28  4  0
 28 29  1  0
 28 30  4  0
 30 31  4  0
 31 32  4  0
 32 33  4  0
 33 34  1  0
 25 35  4  0
 35 36  1  0
 36 37  1  0
 37 38  1  0
 38 39  1  0
 39 40  1  0
 40 41  1  0
 41 37  1  0
 33 27  4  0
  2 23  4  0
  2 35  4  0
M  END
$$$$

     RDKit          3D

 45 52  0  0  0  0  0  0  0  0999 V2000
   -7.6410    4.9930    6.8080 C   0  0  0  0  0  0  0  0  0  1  0  0
   -7.7310    4.0530    5.7140 C   0  0  0  0  0  0  0  0  0  2  0  0
   -6.4520    5.6300    6.8680 N   0  0  0  0  0  0  0  0  0  0  0  0
   -6.2260    6.5240    7.8670 N   0  0  0  0  0  0  0  0  0  0  0  0
   -7.1930    6.7500    8.7820 C   0  0  0  0  0  0  0  0  0  0  0  0
   -8.4240    6.1170    8.7580 C   0  0  0  0  0  0  0  0  0  0  0  0
   -9.3950    6.3570    9.7450 N   0  0  0  0  0  0  0  0  0  0  0  0
  -10.5620    5.6840    9.7600 C   0  0  0  0  0  0  0  0  0  0  0  0
  -11.5770    5.6820   10.5960 N   0  0  0  0  0  0  0  0  0  0  0  0
  -12.4690    4.7490   10.1080 N   0  0  0  0  0  0  0  0  0  0  0  0
  -12.0160    4.1880    8.9920 N   0  0  0  0  0  0  0  0  0  0  0  0
  -10.8400    4.7900    8.7610 N   0  0  0  0  0  0  0  0  0  0  0  0
   -9.9950    4.4790    7.6090 C   0  0  0  0  0  0  0  0  0  0  0  0
   -8.6630    5.2070    7.7200 C   0  0  0  0  0  0  0  0  0  0  0  0
  -10.7490    4.8610    6.3730 C   0  0  0  0  0  0  0  0  0  0  0  0
  -11.0350    6.2020    6.1170 C   0  0  0  0  0  0  0  0  0  0  0  0
  -11.7370    6.5580    4.9650 C   0  0  0  0  0  0  0  0  0  0  0  0
  -12.1550    5.5730    4.0710 C   0  0  0  0  0  0  0  0  0  0  0  0
  -11.8700    4.2310    4.3270 C   0  0  0  0  0  0  0  0  0  0  0  0
  -11.1660    3.8760    5.4790 C   0  0  0  0  0  0  0  0  0  0  0  0
  -12.0160    7.8660    4.7150 O   0  0  0  0  0  0  0  0  0  0  0  0
   -6.8990    7.6510    9.7710 O   0  0  0  0  0  0  0  0  0  0  0  0
   -6.7664    3.1367    5.4072 N   0  0  0  0  0  0  0  0  0  0  0  0
   -6.8364    2.1877    4.4187 C   0  0  0  0  0  0  0  0  0  0  0  0
   -5.6685    1.3058    4.2036 C   0  0  0  0  0  0  0  0  0  0  0  0
   -4.5564    1.6468    4.6915 O   0  0  0  0  0  0  0  0  0  0  0  0
   -5.7761    0.0671    3.4805 N   0  0  0  0  0  0  0  0  0  0  0  0
   -4.6111   -0.7679    3.1923 C   0  0  0  0  0  0  0  0  0  0  0  0
   -4.1065   -1.4187    4.4526 C   0  0  0  0  0  0  0  0  0  0  0  0
   -4.9215   -2.3246    5.1492 C   0  0  0  0  0  0  0  0  0  0  0  0
   -4.4640   -2.9267    6.3247 C   0  0  0  0  0  0  0  0  0  0  0  0
   -3.1895   -2.6216    6.8259 C   0  0  0  0  0  0  0  0  0  0  0  0
   -2.6847   -3.2942    8.0679 C   0  0  0  0  0  0  0  0  0  0  0  0
   -2.3656   -1.7329    6.1189 C   0  0  0  0  0  0  0  0  0  0  0  0
   -2.8225   -1.1317    4.9423 C   0  0  0  0  0  0  0  0  0  0  0  0
   -7.9995    2.0965    3.6220 C   0  0  0  0  0  0  0  0  0  0  0  0
   -9.0315    2.9861    3.8986 C   0  0  0  0  0  0  0  0  0  0  0  0
   -8.9409    3.9260    4.9018 C   0  0  0  0  0  0  0  0  0  0  0  0
  -10.0370    4.7215    4.9318 N   0  0  0  0  0  0  0  0  0  0  0  0
  -10.8291    4.2555    3.9421 C   0  0  0  0  0  0  0  0  0  0  0  0
  -12.0751    4.7492    3.5584 C   0  0  0  0  0  0  0  0  0  0  0  0
  -12.7280    4.1240    2.4796 C   0  0  0  0  0  0  0  0  0  0  0  0
  -12.1262    3.0350    1.8092 C   0  0  0  0  0  0  0  0  0  0  0  0
  -10.8652    2.5579    2.2102 C   0  0  0  0  0  0  0  0  0  0  0  0
  -10.2463    3.1918    3.2860 C   0  0  0  0  0  0  0  0  0  0  0  0
  1  3  4  0
  1 14  4  0
  1  2  1  0
  3  4  4  0
  4  5  4  0
  5  6  4  0
  5 22  1  0
  6  7  1  0
  6 14  4  0
  7  8  1  0
  8  9  4  0
  8 12  4  0
  9 10  4  0
 10 11  4  0
 11 12  4  0
 12 13  1  0
 13 14  1  0
 13 15  1  6
 15 16  4  0
 15 20  4  0
 16 17  4  0
 17 18  4  0
 17 21  1  0
 18 19  4  0
 19 20  4  0
 23 24  4  0
 24 25  1  0
 25 26  2  0
 25 27  1  0
 27 28  1  0
 28 29  1  0
 29 30  4  0
 30 31  4  0
 31 32  4  0
 32 33  1  0
 32 34  4  0
 34 35  4  0
 24 36  4  0
 36 37  4  0
 37 38  4  0
 38 39  4  0
 39 40  4  0
 40 41  4  0
 41 42  4  0
 42 43  4  0
 43 44  4  0
 44 45  4  0
 45 40  4  0
 35 29  4  0
 45 37  4  0
  2 23  4  0
  2 38  4  0
M  END
$$$$

     RDKit          3D

 45 52  0  0  0  0  0  0  0  0999 V2000
   -7.6410    4.9930    6.8080 C   0  0  0  0  0  0  0  0  0  1  0  0
   -7.7310    4.0530    5.7140 C   0  0  0  0  0  0  0  0  0  2  0  0
   -6.4520    5.6300    6.8680 N   0  0  0  0  0  0  0  0  0  0  0  0
   -6.2260    6.5240    7.8670 N   0  0  0  0  0  0  0  0  0  0  0  0
   -7.1930    6.7500    8.7820 C   0  0  0  0  0  0  0  0  0  0  0  0
   -8.4240    6.1170    8.7580 C   0  0  0  0  0  0  0  0  0  0  0  0
   -9.3950    6.3570    9.7450 N   0  0  0  0  0  0  0  0  0  0  0  0
  -10.5620    5.6840    9.7600 C   0  0  0  0  0  0  0  0  0  0  0  0
  -11.5770    5.6820   10.5960 N   0  0  0  0  0  0  0  0  0  0  0  0
  -12.4690    4.7490   10.1080 N   0  0  0  0  0  0  0  0  0  0  0  0
  -12.0160    4.1880    8.9920 N   0  0  0  0  0  0  0  0  0  0  0  0
  -10.8400    4.7900    8.7610 N   0  0  0  0  0  0  0  0  0  0  0  0
   -9.9950    4.4790    7.6090 C   0  0  0  0  0  0  0  0  0  0  0  0
   -8.6630    5.2070    7.7200 C   0  0  0  0  0  0  0  0  0  0  0  0
  -10.7490    4.8610    6.3730 C   0  0  0  0  0  0  0  0  0  0  0  0
  -11.0350    6.2020    6.1170 C   0  0  0  0  0  0  0  0  0  0  0  0
  -11.7370    6.5580    4.9650 C   0  0  0  0  0  0  0  0  0  0  0  0
  -12.1550    5.5730    4.0710 C   0  0  0  0  0  0  0  0  0  0  0  0
  -11.8700    4.2310    4.3270 C   0  0  0  0  0  0  0  0  0  0  0  0
  -11.1660    3.8760    5.4790 C   0  0  0  0  0  0  0  0  0  0  0  0
  -12.0160    7.8660    4.7150 O   0  0  0  0  0  0  0  0  0  0  0  0
   -6.8990    7.6510    9.7710 O   0  0  0  0  0  0  0  0  0  0  0  0
   -6.7708    3.1303    5.4117 N   0  0  0  0  0  0  0  0  0  0  0  0
   -6.8447    2.1801    4.4245 C   0  0  0  0  0  0  0  0  0  0  0  0
   -5.6850    1.2888    4.2092 C   0  0  0  0  0  0  0  0  0  0  0  0
   -4.5667    1.6195    4.6900 O   0  0  0  0  0  0  0  0  0  0  0  0
   -5.8094    0.0511    3.4908 N   0  0  0  0  0  0  0  0  0  0  0  0
   -4.6310   -0.7369    3.1293 C   0  0  0  0  0  0  0  0  0  0  0  0
   -5.0236   -1.9488    2.3254 C   0  0  0  0  0  0  0  0  0  0  0  0
   -5.5501   -1.7922    1.0337 C   0  0  0  0  0  0  0  0  0  0  0  0
   -5.9233   -2.9104    0.2826 C   0  0  0  0  0  0  0  0  0  0  0  0
   -5.7868   -4.1998    0.8181 C   0  0  0  0  0  0  0  0  0  0  0  0
   -6.1530   -5.4004   -0.0028 C   0  0  0  0  0  0  0  0  0  0  0  0
   -5.2423   -4.3588    2.1014 C   0  0  0  0  0  0  0  0  0  0  0  0
   -4.8684   -3.2407    2.8529 C   0  0  0  0  0  0  0  0  0  0  0  0
   -8.0056    2.0953    3.6241 C   0  0  0  0  0  0  0  0  0  0  0  0
   -9.0331    2.9907    3.8966 C   0  0  0  0  0  0  0  0  0  0  0  0
   -8.9396    3.9310    4.8988 C   0  0  0  0  0  0  0  0  0  0  0  0
  -10.0315    4.7325    4.9254 N   0  0  0  0  0  0  0  0  0  0  0  0
  -10.8234    4.2702    3.9337 C   0  0  0  0  0  0  0  0  0  0  0  0
  -12.0645    4.7720    3.5446 C   0  0  0  0  0  0  0  0  0  0  0  0
  -12.7172    4.1506    2.4635 C   0  0  0  0  0  0  0  0  0  0  0  0
  -12.1205    3.0563    1.7969 C   0  0  0  0  0  0  0  0  0  0  0  0
  -10.8639    2.5713    2.2031 C   0  0  0  0  0  0  0  0  0  0  0  0
  -10.2448    3.2025    3.2803 C   0  0  0  0  0  0  0  0  0  0  0  0
  1  3  4  0
  1 14  4  0
  1  2  1  0
  3  4  4  0
  4  5  4  0
  5  6  4  0
  5 22  1  0
  6  7  1  0
  6 14  4  0
  7  8  1  0
  8  9  4  0
  8 12  4  0
  9 10  4  0
 10 11  4  0
 11 12  4  0
 12 13  1  0
 13 14  1  0
 13 15  1  6
 15 16  4  0
 15 20  4  0
 16 17  4  0
 17 18  4  0
 17 21  1  0
 18 19  4  0
 19 20  4  0
 23 24  4  0
 24 25  1  0
 25 26  2  0
 25 27  1  0
 27 28  1  0
 28 29  1  0
 29 30  4  0
 30 31  4  0
 31 32  4  0
 32 33  1  0
 32 34  4  0
 34 35  4  0
 24 36  4  0
 36 37  4  0
 37 38  4  0
 38 39  4  0
 39 40  4  0
 40 41  4  0
 41 42  4  0
 42 43  4  0
 43 44  4  0
 44 45  4  0
 45 40  4  0
 35 29  4  0
 45 37  4  0
  2 23  4  0
  2 38  4  0
M  END
$$$$

     RDKit          3D

 45 52  0  0  0  0  0  0  0  0999 V2000
   -7.6410    4.9930    6.8080 C   0  0  0  0  0  0  0  0  0  1  0  0
   -7.7310    4.0530    5.7140 C   0  0  0  0  0  0  0  0  0  2  0  0
   -6.4520    5.6300    6.8680 N   0  0  0  0  0  0  0  0  0  0  0  0
   -6.2260    6.5240    7.8670 N   0  0  0  0  0  0  0  0  0  0  0  0
   -7.1930    6.7500    8.7820 C   0  0  0  0  0  0  0  0  0  0  0  0
   -8.4240    6.1170    8.7580 C   0  0  0  0  0  0  0  0  0  0  0  0
   -9.3950    6.3570    9.7450 N   0  0  0  0  0  0  0  0  0  0  0  0
  -10.5620    5.6840    9.7600 C   0  0  0  0  0  0  0  0  0  0  0  0
  -11.5770    5.6820   10.5960 N   0  0  0  0  0  0  0  0  0  0  0  0
  -12.4690    4.7490   10.1080 N   0  0  0  0  0  0  0  0  0  0  0  0
  -12.0160    4.1880    8.9920 N   0  0  0  0  0  0  0  0  0  0  0  0
  -10.8400    4.7900    8.7610 N   0  0  0  0  0  0  0  0  0  0  0  0
   -9.9950    4.4790    7.6090 C   0  0  0  0  0  0  0  0  0  0  0  0
   -8.6630    5.2070    7.7200 C   0  0  0  0  0  0  0  0  0  0  0  0
  -10.7490    4.8610    6.3730 C   0  0  0  0  0  0  0  0  0  0  0  0
  -11.0350    6.2020    6.1170 C   0  0  0  0  0  0  0  0  0  0  0  0
  -11.7370    6.5580    4.9650 C   0  0  0  0  0  0  0  0  0  0  0  0
  -12.1550    5.5730    4.0710 C   0  0  0  0  0  0  0  0  0  0  0  0
  -11.8700    4.2310    4.3270 C   0  0  0  0  0  0  0  0  0  0  0  0
  -11.1660    3.8760    5.4790 C   0  0  0  0  0  0  0  0  0  0  0  0
  -12.0160    7.8660    4.7150 O   0  0  0  0  0  0  0  0  0  0  0  0
   -6.8990    7.6510    9.7710 O   0  0  0  0  0  0  0  0  0  0  0  0
   -6.7651    3.1384    5.4068 N   0  0  0  0  0  0  0  0  0  0  0  0
   -6.8193    2.2097    4.3979 C   0  0  0  0  0  0  0  0  0  0  0  0
   -5.6428    1.3349    4.1856 C   0  0  0  0  0  0  0  0  0  0  0  0
   -4.6042    1.5491    4.8675 O   0  0  0  0  0  0  0  0  0  0  0  0
   -5.6555    0.2511    3.2413 N   0  0  0  0  0  0  0  0  0  0  0  0
   -4.4606   -0.5348    2.9425 C   0  0  0  0  0  0  0  0  0  0  0  0
   -4.4510   -1.7878    3.7723 C   0  0  0  0  0  0  0  0  0  0  0  0
   -5.2654   -2.8736    3.4164 C   0  0  0  0  0  0  0  0  0  0  0  0
   -5.2666   -4.0399    4.1854 C   0  0  0  0  0  0  0  0  0  0  0  0
   -4.4523   -4.1374    5.3221 C   0  0  0  0  0  0  0  0  0  0  0  0
   -4.4822   -5.3754    6.1688 C   0  0  0  0  0  0  0  0  0  0  0  0
   -3.6607   -3.0411    5.6967 C   0  0  0  0  0  0  0  0  0  0  0  0
   -3.6547   -1.8761    4.9235 C   0  0  0  0  0  0  0  0  0  0  0  0
   -7.9686    2.1419    3.5781 C   0  0  0  0  0  0  0  0  0  0  0  0
   -9.0053    3.0247    3.8607 C   0  0  0  0  0  0  0  0  0  0  0  0
   -8.9294    3.9425    4.8853 C   0  0  0  0  0  0  0  0  0  0  0  0
  -10.0227    4.7425    4.9112 N   0  0  0  0  0  0  0  0  0  0  0  0
  -10.7955    4.3028    3.8943 C   0  0  0  0  0  0  0  0  0  0  0  0
  -12.0303    4.8149    3.4950 C   0  0  0  0  0  0  0  0  0  0  0  0
  -12.6620    4.2213    2.3861 C   0  0  0  0  0  0  0  0  0  0  0  0
  -12.0505    3.1459    1.7016 C   0  0  0  0  0  0  0  0  0  0  0  0
  -10.8036    2.6485    2.1228 C   0  0  0  0  0  0  0  0  0  0  0  0
  -10.2051    3.2515    3.2271 C   0  0  0  0  0  0  0  0  0  0  0  0
  1  3  4  0
  1 14  4  0
  1  2  1  0
  3  4  4  0
  4  5  4  0
  5  6  4  0
  5 22  1  0
  6  7  1  0
  6 14  4  0
  7  8  1  0
  8  9  4  0
  8 12  4  0
  9 10  4  0
 10 11  4  0
 11 12  4  0
 12 13  1  0
 13 14  1  0
 13 15  1  6
 15 16  4  0
 15 20  4  0
 16 17  4  0
 17 18  4  0
 17 21  1  0
 18 19  4  0
 19 20  4  0
 23 24  4  0
 24 25  1  0
 25 26  2  0
 25 27  1  0
 27 28  1  0
 28 29  1  0
 29 30  4  0
 30 31  4  0
 31 32  4  0
 32 33  1  0
 32 34  4  0
 34 35  4  0
 24 36  4  0
 36 37  4  0
 37 38  4  0
 38 39  4  0
 39 40  4  0
 40 41  4  0
 41 42  4  0
 42 43  4  0
 43 44  4  0
 44 45  4  0
 45 40  4  0
 35 29  4  0
 45 37  4  0
  2 23  4  0
  2 38  4  0
M  END
$$$$

     RDKit          3D

 30 34  0  0  0  0  0  0  0  0999 V2000
   -7.6410    4.9930    6.8080 C   0  0  0  0  0  0  0  0  0  1  0  0
   -7.7310    4.0530    5.7140 C   0  0  0  0  0  0  0  0  0  2  0  0
   -6.4520    5.6300    6.8680 N   0  0  0  0  0  0  0  0  0  0  0  0
   -6.2260    6.5240    7.8670 N   0  0  0  0  0  0  0  0  0  0  0  0
   -7.1930    6.7500    8.7820 C   0  0  0  0  0  0  0  0  0  0  0  0
   -8.4240    6.1170    8.7580 C   0  0  0  0  0  0  0  0  0  0  0  0
   -9.3950    6.3570    9.7450 N   0  0  0  0  0  0  0  0  0  0  0  0
  -10.5620    5.6840    9.7600 C   0  0  0  0  0  0  0  0  0  0  0  0
  -11.5770    5.6820   10.5960 N   0  0  0  0  0  0  0  0  0  0  0  0
  -12.4690    4.7490   10.1080 N   0  0  0  0  0  0  0  0  0  0  0  0
  -12.0160    4.1880    8.9920 N   0  0  0  0  0  0  0  0  0  0  0  0
  -10.8400    4.7900    8.7610 N   0  0  0  0  0  0  0  0  0  0  0  0
   -9.9950    4.4790    7.6090 C   0  0  0  0  0  0  0  0  0  0  0  0
   -8.6630    5.2070    7.7200 C   0  0  0  0  0  0  0  0  0  0  0  0
  -10.7490    4.8610    6.3730 C   0  0  0  0  0  0  0  0  0  0  0  0
  -11.0350    6.2020    6.1170 C   0  0  0  0  0  0  0  0  0  0  0  0
  -11.7370    6.5580    4.9650 C   0  0  0  0  0  0  0  0  0  0  0  0
  -12.1550    5.5730    4.0710 C   0  0  0  0  0  0  0  0  0  0  0  0
  -11.8700    4.2310    4.3270 C   0  0  0  0  0  0  0  0  0  0  0  0
  -11.1660    3.8760    5.4790 C   0  0  0  0  0  0  0  0  0  0  0  0
  -12.0160    7.8660    4.7150 O   0  0  0  0  0  0  0  0  0  0  0  0
   -6.8990    7.6510    9.7710 O   0  0  0  0  0  0  0  0  0  0  0  0
   -6.9796    2.8686    5.5948 C   0  0  0  0  0  0  0  0  0  0  0  0
   -7.1932    1.9202    4.5934 C   0  0  0  0  0  0  0  0  0  0  0  0
   -8.2406    2.0857    3.6870 C   0  0  0  0  0  0  0  0  0  0  0  0
   -9.0793    3.1994    3.7786 C   0  0  0  0  0  0  0  0  0  0  0  0
   -8.8720    4.1677    4.7823 C   0  0  0  0  0  0  0  0  0  0  0  0
   -9.6862    5.3084    4.9047 O   0  0  0  0  0  0  0  0  0  0  0  0
  -10.6725    5.7339    3.9647 C   0  0  0  0  0  0  0  0  0  0  0  0
  -10.0137    6.3272    2.7240 C   0  0  0  0  0  0  0  0  0  0  0  0
  1  3  4  0
  1 14  4  0
  1  2  1  0
  3  4  4  0
  4  5  4  0
  5  6  4  0
  5 22  1  0
  6  7  1  0
  6 14  4  0
  7  8  1  0
  8  9  4  0
  8 12  4  0
  9 10  4  0
 10 11  4  0
 11 12  4  0
 12 13  1  0
 13 14  1  0
 13 15  1  6
 15 16  4  0
 15 20  4  0
 16 17  4  0
 17 18  4  0
 17 21  1  0
 18 19  4  0
 19 20  4  0
 23 24  4  0
 24 25  4  0
 25 26  4  0
 26 27  4  0
 27 28  1  0
 28 29  1  0
 29 30  1  0
  2 23  4  0
  2 27  4  0
M  END
$$$$

     RDKit          3D

 38 45  0  0  0  0  0  0  0  0999 V2000
   -7.6410    4.9930    6.8080 C   0  0  0  0  0  0  0  0  0  1  0  0
   -7.7310    4.0530    5.7140 C   0  0  0  0  0  0  0  0  0  2  0  0
   -6.4520    5.6300    6.8680 N   0  0  0  0  0  0  0  0  0  0  0  0
   -6.2260    6.5240    7.8670 N   0  0  0  0  0  0  0  0  0  0  0  0
   -7.1930    6.7500    8.7820 C   0  0  0  0  0  0  0  0  0  0  0  0
   -8.4240    6.1170    8.7580 C   0  0  0  0  0  0  0  0  0  0  0  0
   -9.3950    6.3570    9.7450 N   0  0  0  0  0  0  0  0  0  0  0  0
  -10.5620    5.6840    9.7600 C   0  0  0  0  0  0  0  0  0  0  0  0
  -11.5770    5.6820   10.5960 N   0  0  0  0  0  0  0  0  0  0  0  0
  -12.4690    4.7490   10.1080 N   0  0  0  0  0  0  0  0  0  0  0  0
  -12.0160    4.1880    8.9920 N   0  0  0  0  0  0  0  0  0  0  0  0
  -10.8400    4.7900    8.7610 N   0  0  0  0  0  0  0  0  0  0  0  0
   -9.9950    4.4790    7.6090 C   0  0  0  0  0  0  0  0  0  0  0  0
   -8.6630    5.2070    7.7200 C   0  0  0  0  0  0  0  0  0  0  0  0
  -10.7490    4.8610    6.3730 C   0  0  0  0  0  0  0  0  0  0  0  0
  -11.0350    6.2020    6.1170 C   0  0  0  0  0  0  0  0  0  0  0  0
  -11.7370    6.5580    4.9650 C   0  0  0  0  0  0  0  0  0  0  0  0
  -12.1550    5.5730    4.0710 C   0  0  0  0  0  0  0  0  0  0  0  0
  -11.8700    4.2310    4.3270 C   0  0  0  0  0  0  0  0  0  0  0  0
  -11.1660    3.8760    5.4790 C   0  0  0  0  0  0  0  0  0  0  0  0
  -12.0160    7.8660    4.7150 O   0  0  0  0  0  0  0  0  0  0  0  0
   -6.8990    7.6510    9.7710 O   0  0  0  0  0  0  0  0  0  0  0  0
   -6.7877    3.0392    5.4140 C   0  0  0  0  0  0  0  0  0  0  0  0
   -6.9470    2.1038    4.3672 C   0  0  0  0  0  0  0  0  0  0  0  0
   -8.1079    2.1219    3.5677 C   0  0  0  0  0  0  0  0  0  0  0  0
   -9.0791    3.0800    3.8420 C   0  0  0  0  0  0  0  0  0  0  0  0
  -10.2654    3.2267    3.1081 C   0  0  0  0  0  0  0  0  0  1  0  0
  -11.0818    4.2423    3.5063 N   0  0  0  0  0  0  0  0  0  0  0  0
  -10.2866    4.9506    4.7960 S   0  0  0  0  0  0  0  0  0  0  0  0
   -8.9243    3.9855    4.8682 C   0  0  0  0  0  0  0  0  0  0  0  0
  -10.5517    2.3178    1.9763 C   0  0  0  0  0  0  0  0  0  2  0  0
  -11.7332    2.4359    1.2284 C   0  0  0  0  0  0  0  0  0  0  0  0
  -11.9795    1.5642    0.1647 C   0  0  0  0  0  0  0  0  0  0  0  0
  -11.0521    0.5714   -0.1599 C   0  0  0  0  0  0  0  0  0  0  0  0
   -9.8710    0.4427    0.5763 C   0  0  0  0  0  0  0  0  0  0  0  0
   -9.6062    1.3105    1.6495 C   0  0  0  0  0  0  0  0  0  0  0  0
   -8.3475    1.1866    2.4439 C   0  0  0  0  0  0  0  0  0  0  0  0
   -7.4962    0.2994    2.1643 O   0  0  0  0  0  0  0  0  0  0  0  0
  1  3  4  0
  1 14  4  0
  1  2  1  0
  3  4  4  0
  4  5  4  0
  5  6  4  0
  5 22  1  0
  6  7  1  0
  6 14  4  0
  7  8  1  0
  8  9  4  0
  8 12  4  0
  9 10  4  0
 10 11  4  0
 11 12  4  0
 12 13  1  0
 13 14  1  0
 13 15  1  6
 15 16  4  0
 15 20  4  0
 16 17  4  0
 17 18  4  0
 17 21  1  0
 18 19  4  0
 19 20  4  0
 23 24  4  0
 24 25  4  0
 25 26  4  0
 26 27  4  0
 27 28  4  0
 28 29  4  0
 29 30  4  0
 27 31  1  0
 31 32  4  0
 32 33  4  0
 33 34  4  0
 34 35  4  0
 35 36  4  0
 36 37  1  0
 37 38  2  0
 36 31  4  0
 37 25  1  0
 30 26  4  0
  2 23  4  0
  2 30  4  0
M  END
$$$$

     RDKit          3D

 45 51  0  0  0  0  0  0  0  0999 V2000
   -7.6410    4.9930    6.8080 C   0  0  0  0  0  0  0  0  0  1  0  0
   -7.7310    4.0530    5.7140 C   0  0  0  0  0  0  0  0  0  2  0  0
   -6.4520    5.6300    6.8680 N   0  0  0  0  0  0  0  0  0  0  0  0
   -6.2260    6.5240    7.8670 N   0  0  0  0  0  0  0  0  0  0  0  0
   -7.1930    6.7500    8.7820 C   0  0  0  0  0  0  0  0  0  0  0  0
   -8.4240    6.1170    8.7580 C   0  0  0  0  0  0  0  0  0  0  0  0
   -9.3950    6.3570    9.7450 N   0  0  0  0  0  0  0  0  0  0  0  0
  -10.5620    5.6840    9.7600 C   0  0  0  0  0  0  0  0  0  0  0  0
  -11.5770    5.6820   10.5960 N   0  0  0  0  0  0  0  0  0  0  0  0
  -12.4690    4.7490   10.1080 N   0  0  0  0  0  0  0  0  0  0  0  0
  -12.0160    4.1880    8.9920 N   0  0  0  0  0  0  0  0  0  0  0  0
  -10.8400    4.7900    8.7610 N   0  0  0  0  0  0  0  0  0  0  0  0
   -9.9950    4.4790    7.6090 C   0  0  0  0  0  0  0  0  0  0  0  0
   -8.6630    5.2070    7.7200 C   0  0  0  0  0  0  0  0  0  0  0  0
  -10.7490    4.8610    6.3730 C   0  0  0  0  0  0  0  0  0  0  0  0
  -11.0350    6.2020    6.1170 C   0  0  0  0  0  0  0  0  0  0  0  0
  -11.7370    6.5580    4.9650 C   0  0  0  0  0  0  0  0  0  0  0  0
  -12.1550    5.5730    4.0710 C   0  0  0  0  0  0  0  0  0  0  0  0
  -11.8700    4.2310    4.3270 C   0  0  0  0  0  0  0  0  0  0  0  0
  -11.1660    3.8760    5.4790 C   0  0  0  0  0  0  0  0  0  0  0  0
  -12.0160    7.8660    4.7150 O   0  0  0  0  0  0  0  0  0  0  0  0
   -6.8990    7.6510    9.7710 O   0  0  0  0  0  0  0  0  0  0  0  0
   -6.8030    3.1621    5.3100 N   0  0  0  0  0  0  0  0  0  0  0  0
   -7.2827    2.4208    4.3222 N   0  0  0  0  0  0  0  0  0  0  0  0
   -8.5461    2.8284    4.1063 C   0  0  0  0  0  0  0  0  0  0  0  0
   -9.6132    2.1131    2.8542 S   0  0  0  0  0  0  0  0  0  0  0  0
   -9.0369    3.2509    1.5529 C   0  0  0  0  0  0  0  0  0  0  0  0
   -9.8130    3.0108    0.2930 C   0  0  0  0  0  0  0  0  0  0  0  0
  -11.0429    3.2882    0.2702 O   0  0  0  0  0  0  0  0  0  0  0  0
   -9.1741    2.4238   -0.9041 C   0  0  0  0  0  0  0  0  0  0  0  0
   -8.2934    1.3017   -0.6806 C   0  0  0  0  0  0  0  0  0  0  0  0
   -7.5863    0.4054   -0.4890 N   0  0  0  0  0  0  0  0  0  0  0  0
   -9.4329    2.8822   -2.1549 C   0  0  0  0  0  0  0  0  0  0  0  0
  -10.0803    4.1475   -2.4324 N   0  0  0  0  0  0  0  0  0  0  0  0
   -9.9738    5.3719   -1.6351 C   0  0  0  0  0  0  0  0  0  0  0  0
  -10.2055    4.1507   -3.8520 C   0  0  0  0  0  0  0  0  0  0  0  0
  -10.7816    5.1418   -4.6520 C   0  0  0  0  0  0  0  0  0  0  0  0
  -10.7817    4.9573   -6.0438 C   0  0  0  0  0  0  0  0  0  0  0  0
  -10.2074    3.8009   -6.6073 C   0  0  0  0  0  0  0  0  0  0  0  0
   -9.6343    2.8172   -5.7833 C   0  0  0  0  0  0  0  0  0  0  0  0
   -9.6552    3.0172   -4.3981 C   0  0  0  0  0  0  0  0  0  0  0  0
   -9.1260    2.1693   -3.3779 N   0  0  0  0  0  0  0  0  0  0  0  0
   -8.8931    0.7314   -3.5284 C   0  0  0  0  0  0  0  0  0  0  0  0
   -8.8929    3.8317    4.9353 N   0  0  0  0  0  0  0  0  0  0  0  0
  -10.1691    4.5431    4.9888 C   0  0  0  0  0  0  0  0  0  0  0  0
  1  3  4  0
  1 14  4  0
  1  2  1  0
  3  4  4  0
  4  5  4  0
  5  6  4  0
  5 22  1  0
  6  7  1  0
  6 14  4  0
  7  8  1  0
  8  9  4  0
  8 12  4  0
  9 10  4  0
 10 11  4  0
 11 12  4  0
 12 13  1  0
 13 14  1  0
 13 15  1  6
 15 16  4  0
 15 20  4  0
 16 17  4  0
 17 18  4  0
 17 21  1  0
 18 19  4  0
 19 20  4  0
 23 24  4  0
 24 25  4  0
 25 26  1  0
 26 27  1  0
 27 28  1  0
 28 29  2  0
 28 30  1  0
 30 31  1  0
 31 32  3  0
 30 33  2  3
 33 34  1  0
 34 35  1  0
 34 36  1  0
 36 37  4  0
 37 38  4  0
 38 39  4  0
 39 40  4  0
 40 41  4  0
 41 42  1  0
 42 43  1  0
 25 44  4  0
 44 45  1  0
 42 33  1  0
 41 36  4  0
  2 23  4  0
  2 44  4  0
M  END
$$$$

     RDKit          3D

 45 51  0  0  0  0  0  0  0  0999 V2000
   -7.6410    4.9930    6.8080 C   0  0  0  0  0  0  0  0  0  1  0  0
   -7.7310    4.0530    5.7140 C   0  0  0  0  0  0  0  0  0  2  0  0
   -6.4520    5.6300    6.8680 N   0  0  0  0  0  0  0  0  0  0  0  0
   -6.2260    6.5240    7.8670 N   0  0  0  0  0  0  0  0  0  0  0  0
   -7.1930    6.7500    8.7820 C   0  0  0  0  0  0  0  0  0  0  0  0
   -8.4240    6.1170    8.7580 C   0  0  0  0  0  0  0  0  0  0  0  0
   -9.3950    6.3570    9.7450 N   0  0  0  0  0  0  0  0  0  0  0  0
  -10.5620    5.6840    9.7600 C   0  0  0  0  0  0  0  0  0  0  0  0
  -11.5770    5.6820   10.5960 N   0  0  0  0  0  0  0  0  0  0  0  0
  -12.4690    4.7490   10.1080 N   0  0  0  0  0  0  0  0  0  0  0  0
  -12.0160    4.1880    8.9920 N   0  0  0  0  0  0  0  0  0  0  0  0
  -10.8400    4.7900    8.7610 N   0  0  0  0  0  0  0  0  0  0  0  0
   -9.9950    4.4790    7.6090 C   0  0  0  0  0  0  0  0  0  0  0  0
   -8.6630    5.2070    7.7200 C   0  0  0  0  0  0  0  0  0  0  0  0
  -10.7490    4.8610    6.3730 C   0  0  0  0  0  0  0  0  0  0  0  0
  -11.0350    6.2020    6.1170 C   0  0  0  0  0  0  0  0  0  0  0  0
  -11.7370    6.5580    4.9650 C   0  0  0  0  0  0  0  0  0  0  0  0
  -12.1550    5.5730    4.0710 C   0  0  0  0  0  0  0  0  0  0  0  0
  -11.8700    4.2310    4.3270 C   0  0  0  0  0  0  0  0  0  0  0  0
  -11.1660    3.8760    5.4790 C   0  0  0  0  0  0  0  0  0  0  0  0
  -12.0160    7.8660    4.7150 O   0  0  0  0  0  0  0  0  0  0  0  0
   -6.8990    7.6510    9.7710 O   0  0  0  0  0  0  0  0  0  0  0  0
   -6.8469    3.0881    5.3860 N   0  0  0  0  0  0  0  0  0  0  0  0
   -7.2769    2.4287    4.3219 N   0  0  0  0  0  0  0  0  0  0  0  0
   -8.4634    2.9651    3.9825 C   0  0  0  0  0  0  0  0  0  0  0  0
   -9.4002    2.4342    2.5434 S   0  0  0  0  0  0  0  0  0  0  0  0
   -8.4762    3.4732    1.3579 C   0  0  0  0  0  0  0  0  0  0  0  0
   -9.1444    4.8084    1.1965 C   0  0  0  0  0  0  0  0  0  0  0  0
   -8.5810    5.8450    1.6395 O   0  0  0  0  0  0  0  0  0  0  0  0
  -10.4765    4.9154    0.5754 C   0  0  0  0  0  0  0  0  0  0  0  0
  -11.5179    5.4989    1.3844 C   0  0  0  0  0  0  0  0  0  0  0  0
  -12.3475    5.9697    2.0398 N   0  0  0  0  0  0  0  0  0  0  0  0
  -10.7175    4.4807   -0.6848 C   0  0  0  0  0  0  0  0  0  0  0  0
   -9.6784    4.2124   -1.6537 N   0  0  0  0  0  0  0  0  0  0  0  0
   -8.4450    4.9933   -1.7818 C   0  0  0  0  0  0  0  0  0  0  0  0
  -10.4062    3.7261   -2.7795 C   0  0  0  0  0  0  0  0  0  0  0  0
   -9.8886    3.2747   -3.9959 C   0  0  0  0  0  0  0  0  0  0  0  0
  -10.7871    2.8378   -4.9816 C   0  0  0  0  0  0  0  0  0  0  0  0
  -12.1744    2.8622   -4.7407 C   0  0  0  0  0  0  0  0  0  0  0  0
  -12.6733    3.3169   -3.5101 C   0  0  0  0  0  0  0  0  0  0  0  0
  -11.7578    3.7354   -2.5376 C   0  0  0  0  0  0  0  0  0  0  0  0
  -12.0341    4.2263   -1.2272 N   0  0  0  0  0  0  0  0  0  0  0  0
  -13.2494    3.9302   -0.4660 C   0  0  0  0  0  0  0  0  0  0  0  0
   -8.8246    3.9512    4.8287 N   0  0  0  0  0  0  0  0  0  0  0  0
   -9.9396    4.8877    4.6886 C   0  0  0  0  0  0  0  0  0  0  0  0
  1  3  4  0
  1 14  4  0
  1  2  1  0
  3  4  4  0
  4  5  4  0
  5  6  4  0
  5 22  1  0
  6  7  1  0
  6 14  4  0
  7  8  1  0
  8  9  4  0
  8 12  4  0
  9 10  4  0
 10 11  4  0
 11 12  4  0
 12 13  1  0
 13 14  1  0
 13 15  1  6
 15 16  4  0
 15 20  4  0
 16 17  4  0
 17 18  4  0
 17 21  1  0
 18 19  4  0
 19 20  4  0
 23 24  4  0
 24 25  4  0
 25 26  1  0
 26 27  1  0
 27 28  1  0
 28 29  2  0
 28 30  1  0
 30 31  1  0
 31 32  3  0
 30 33  2  3
 33 34  1  0
 34 35  1  0
 34 36  1  0
 36 37  4  0
 37 38  4  0
 38 39  4  0
 39 40  4  0
 40 41  4  0
 41 42  1  0
 42 43  1  0
 25 44  4  0
 44 45  1  0
 42 33  1  0
 41 36  4  0
  2 23  4  0
  2 44  4  0
M  END
$$$$

     RDKit          3D

 45 51  0  0  0  0  0  0  0  0999 V2000
   -7.6410    4.9930    6.8080 C   0  0  0  0  0  0  0  0  0  1  0  0
   -7.7310    4.0530    5.7140 C   0  0  0  0  0  0  0  0  0  2  0  0
   -6.4520    5.6300    6.8680 N   0  0  0  0  0  0  0  0  0  0  0  0
   -6.2260    6.5240    7.8670 N   0  0  0  0  0  0  0  0  0  0  0  0
   -7.1930    6.7500    8.7820 C   0  0  0  0  0  0  0  0  0  0  0  0
   -8.4240    6.1170    8.7580 C   0  0  0  0  0  0  0  0  0  0  0  0
   -9.3950    6.3570    9.7450 N   0  0  0  0  0  0  0  0  0  0  0  0
  -10.5620    5.6840    9.7600 C   0  0  0  0  0  0  0  0  0  0  0  0
  -11.5770    5.6820   10.5960 N   0  0  0  0  0  0  0  0  0  0  0  0
  -12.4690    4.7490   10.1080 N   0  0  0  0  0  0  0  0  0  0  0  0
  -12.0160    4.1880    8.9920 N   0  0  0  0  0  0  0  0  0  0  0  0
  -10.8400    4.7900    8.7610 N   0  0  0  0  0  0  0  0  0  0  0  0
   -9.9950    4.4790    7.6090 C   0  0  0  0  0  0  0  0  0  0  0  0
   -8.6630    5.2070    7.7200 C   0  0  0  0  0  0  0  0  0  0  0  0
  -10.7490    4.8610    6.3730 C   0  0  0  0  0  0  0  0  0  0  0  0
  -11.0350    6.2020    6.1170 C   0  0  0  0  0  0  0  0  0  0  0  0
  -11.7370    6.5580    4.9650 C   0  0  0  0  0  0  0  0  0  0  0  0
  -12.1550    5.5730    4.0710 C   0  0  0  0  0  0  0  0  0  0  0  0
  -11.8700    4.2310    4.3270 C   0  0  0  0  0  0  0  0  0  0  0  0
  -11.1660    3.8760    5.4790 C   0  0  0  0  0  0  0  0  0  0  0  0
  -12.0160    7.8660    4.7150 O   0  0  0  0  0  0  0  0  0  0  0  0
   -6.8990    7.6510    9.7710 O   0  0  0  0  0  0  0  0  0  0  0  0
   -6.8619    3.0656    5.4067 N   0  0  0  0  0  0  0  0  0  0  0  0
   -7.2945    2.4027    4.3453 N   0  0  0  0  0  0  0  0  0  0  0  0
   -8.4664    2.9601    3.9882 C   0  0  0  0  0  0  0  0  0  0  0  0
   -9.4113    2.4354    2.5530 S   0  0  0  0  0  0  0  0  0  0  0  0
   -8.6724    3.6548    1.4116 C   0  0  0  0  0  0  0  0  0  0  0  0
   -7.4304    3.0952    0.7751 C   0  0  0  0  0  0  0  0  0  0  0  0
   -6.4399    2.8104    1.5006 O   0  0  0  0  0  0  0  0  0  0  0  0
   -7.3647    2.8134   -0.6737 C   0  0  0  0  0  0  0  0  0  0  0  0
   -6.9856    1.4678   -1.0292 C   0  0  0  0  0  0  0  0  0  0  0  0
   -6.6798    0.3856   -1.3031 N   0  0  0  0  0  0  0  0  0  0  0  0
   -7.7308    3.7230   -1.6126 C   0  0  0  0  0  0  0  0  0  0  0  0
   -8.1013    5.0860   -1.3025 N   0  0  0  0  0  0  0  0  0  0  0  0
   -7.2652    6.0169   -0.5419 C   0  0  0  0  0  0  0  0  0  0  0  0
   -8.7629    5.5129   -2.4918 C   0  0  0  0  0  0  0  0  0  0  0  0
   -9.3595    6.7541   -2.7285 C   0  0  0  0  0  0  0  0  0  0  0  0
   -9.9388    6.9847   -3.9880 C   0  0  0  0  0  0  0  0  0  0  0  0
   -9.9044    5.9855   -4.9813 C   0  0  0  0  0  0  0  0  0  0  0  0
   -9.2867    4.7497   -4.7245 C   0  0  0  0  0  0  0  0  0  0  0  0
   -8.7160    4.5454   -3.4638 C   0  0  0  0  0  0  0  0  0  0  0  0
   -8.0333    3.3905   -2.9868 N   0  0  0  0  0  0  0  0  0  0  0  0
   -7.3598    2.4027   -3.8304 C   0  0  0  0  0  0  0  0  0  0  0  0
   -8.8199    3.9581    4.8227 N   0  0  0  0  0  0  0  0  0  0  0  0
   -9.8917    4.9338    4.6254 C   0  0  0  0  0  0  0  0  0  0  0  0
  1  3  4  0
  1 14  4  0
  1  2  1  0
  3  4  4  0
  4  5  4  0
  5  6  4  0
  5 22  1  0
  6  7  1  0
  6 14  4  0
  7  8  1  0
  8  9  4  0
  8 12  4  0
  9 10  4  0
 10 11  4  0
 11 12  4  0
 12 13  1  0
 13 14  1  0
 13 15  1  6
 15 16  4  0
 15 20  4  0
 16 17  4  0
 17 18  4  0
 17 21  1  0
 18 19  4  0
 19 20  4  0
 23 24  4  0
 24 25  4  0
 25 26  1  0
 26 27  1  0
 27 28  1  0
 28 29  2  0
 28 30  1  0
 30 31  1  0
 31 32  3  0
 30 33  2  3
 33 34  1  0
 34 35  1  0
 34 36  1  0
 36 37  4  0
 37 38  4  0
 38 39  4  0
 39 40  4  0
 40 41  4  0
 41 42  1  0
 42 43  1  0
 25 44  4  0
 44 45  1  0
 42 33  1  0
 41 36  4  0
  2 23  4  0
  2 44  4  0
M  END
$$$$

     RDKit          3D

 45 51  0  0  0  0  0  0  0  0999 V2000
   -7.6410    4.9930    6.8080 C   0  0  0  0  0  0  0  0  0  1  0  0
   -7.7310    4.0530    5.7140 C   0  0  0  0  0  0  0  0  0  2  0  0
   -6.4520    5.6300    6.8680 N   0  0  0  0  0  0  0  0  0  0  0  0
   -6.2260    6.5240    7.8670 N   0  0  0  0  0  0  0  0  0  0  0  0
   -7.1930    6.7500    8.7820 C   0  0  0  0  0  0  0  0  0  0  0  0
   -8.4240    6.1170    8.7580 C   0  0  0  0  0  0  0  0  0  0  0  0
   -9.3950    6.3570    9.7450 N   0  0  0  0  0  0  0  0  0  0  0  0
  -10.5620    5.6840    9.7600 C   0  0  0  0  0  0  0  0  0  0  0  0
  -11.5770    5.6820   10.5960 N   0  0  0  0  0  0  0  0  0  0  0  0
  -12.4690    4.7490   10.1080 N   0  0  0  0  0  0  0  0  0  0  0  0
  -12.0160    4.1880    8.9920 N   0  0  0  0  0  0  0  0  0  0  0  0
  -10.8400    4.7900    8.7610 N   0  0  0  0  0  0  0  0  0  0  0  0
   -9.9950    4.4790    7.6090 C   0  0  0  0  0  0  0  0  0  0  0  0
   -8.6630    5.2070    7.7200 C   0  0  0  0  0  0  0  0  0  0  0  0
  -10.7490    4.8610    6.3730 C   0  0  0  0  0  0  0  0  0  0  0  0
  -11.0350    6.2020    6.1170 C   0  0  0  0  0  0  0  0  0  0  0  0
  -11.7370    6.5580    4.9650 C   0  0  0  0  0  0  0  0  0  0  0  0
  -12.1550    5.5730    4.0710 C   0  0  0  0  0  0  0  0  0  0  0  0
  -11.8700    4.2310    4.3270 C   0  0  0  0  0  0  0  0  0  0  0  0
  -11.1660    3.8760    5.4790 C   0  0  0  0  0  0  0  0  0  0  0  0
  -12.0160    7.8660    4.7150 O   0  0  0  0  0  0  0  0  0  0  0  0
   -6.8990    7.6510    9.7710 O   0  0  0  0  0  0  0  0  0  0  0  0
   -6.7298    3.3697    5.1284 N   0  0  0  0  0  0  0  0  0  0  0  0
   -7.1933    2.6342    4.1291 N   0  0  0  0  0  0  0  0  0  0  0  0
   -8.5175    2.8392    4.0786 C   0  0  0  0  0  0  0  0  0  0  0  0
   -9.6004    2.0316    2.8942 S   0  0  0  0  0  0  0  0  0  0  0  0
   -9.6524    0.4467    3.8176 C   0  0  0  0  0  0  0  0  0  0  0  0
   -8.5468   -0.4888    3.3895 C   0  0  0  0  0  0  0  0  0  0  0  0
   -7.7273   -0.1197    2.5062 O   0  0  0  0  0  0  0  0  0  0  0  0
   -8.4082   -1.8400    3.9959 C   0  0  0  0  0  0  0  0  0  0  0  0
   -8.8637   -2.0026    5.3589 C   0  0  0  0  0  0  0  0  0  0  0  0
   -9.2405   -2.1207    6.4479 N   0  0  0  0  0  0  0  0  0  0  0  0
   -7.8507   -2.8746    3.3122 C   0  0  0  0  0  0  0  0  0  0  0  0
   -7.6168   -2.8518    1.8876 N   0  0  0  0  0  0  0  0  0  0  0  0
   -8.5969   -2.4550    0.8769 C   0  0  0  0  0  0  0  0  0  0  0  0
   -6.7584   -3.9651    1.6750 C   0  0  0  0  0  0  0  0  0  0  0  0
   -6.2140   -4.3892    0.4612 C   0  0  0  0  0  0  0  0  0  0  0  0
   -5.4174   -5.5481    0.4569 C   0  0  0  0  0  0  0  0  0  0  0  0
   -5.2053   -6.2659    1.6468 C   0  0  0  0  0  0  0  0  0  0  0  0
   -5.7785   -5.8274    2.8545 C   0  0  0  0  0  0  0  0  0  0  0  0
   -6.5554   -4.6660    2.8390 C   0  0  0  0  0  0  0  0  0  0  0  0
   -7.2453   -4.0431    3.9243 N   0  0  0  0  0  0  0  0  0  0  0  0
   -6.9953   -4.2984    5.3448 C   0  0  0  0  0  0  0  0  0  0  0  0
   -8.9248    3.7167    5.0172 N   0  0  0  0  0  0  0  0  0  0  0  0
  -10.2665    4.2898    5.1707 C   0  0  0  0  0  0  0  0  0  0  0  0
  1  3  4  0
  1 14  4  0
  1  2  1  0
  3  4  4  0
  4  5  4  0
  5  6  4  0
  5 22  1  0
  6  7  1  0
  6 14  4  0
  7  8  1  0
  8  9  4  0
  8 12  4  0
  9 10  4  0
 10 11  4  0
 11 12  4  0
 12 13  1  0
 13 14  1  0
 13 15  1  6
 15 16  4  0
 15 20  4  0
 16 17  4  0
 17 18  4  0
 17 21  1  0
 18 19  4  0
 19 20  4  0
 23 24  4  0
 24 25  4  0
 25 26  1  0
 26 27  1  0
 27 28  1  0
 28 29  2  0
 28 30  1  0
 30 31  1  0
 31 32  3  0
 30 33  2  3
 33 34  1  0
 34 35  1  0
 34 36  1  0
 36 37  4  0
 37 38  4  0
 38 39  4  0
 39 40  4  0
 40 41  4  0
 41 42  1  0
 42 43  1  0
 25 44  4  0
 44 45  1  0
 42 33  1  0
 41 36  4  0
  2 23  4  0
  2 44  4  0
M  END
$$$$

     RDKit          3D

 31 35  0  0  0  0  0  0  0  0999 V2000
   -7.6410    4.9930    6.8080 C   0  0  0  0  0  0  0  0  0  1  0  0
   -7.7310    4.0530    5.7140 C   0  0  0  0  0  0  0  0  0  2  0  0
   -6.4520    5.6300    6.8680 N   0  0  0  0  0  0  0  0  0  0  0  0
   -6.2260    6.5240    7.8670 N   0  0  0  0  0  0  0  0  0  0  0  0
   -7.1930    6.7500    8.7820 C   0  0  0  0  0  0  0  0  0  0  0  0
   -8.4240    6.1170    8.7580 C   0  0  0  0  0  0  0  0  0  0  0  0
   -9.3950    6.3570    9.7450 N   0  0  0  0  0  0  0  0  0  0  0  0
  -10.5620    5.6840    9.7600 C   0  0  0  0  0  0  0  0  0  0  0  0
  -11.5770    5.6820   10.5960 N   0  0  0  0  0  0  0  0  0  0  0  0
  -12.4690    4.7490   10.1080 N   0  0  0  0  0  0  0  0  0  0  0  0
  -12.0160    4.1880    8.9920 N   0  0  0  0  0  0  0  0  0  0  0  0
  -10.8400    4.7900    8.7610 N   0  0  0  0  0  0  0  0  0  0  0  0
   -9.9950    4.4790    7.6090 C   0  0  0  0  0  0  0  0  0  0  0  0
   -8.6630    5.2070    7.7200 C   0  0  0  0  0  0  0  0  0  0  0  0
  -10.7490    4.8610    6.3730 C   0  0  0  0  0  0  0  0  0  0  0  0
  -11.0350    6.2020    6.1170 C   0  0  0  0  0  0  0  0  0  0  0  0
  -11.7370    6.5580    4.9650 C   0  0  0  0  0  0  0  0  0  0  0  0
  -12.1550    5.5730    4.0710 C   0  0  0  0  0  0  0  0  0  0  0  0
  -11.8700    4.2310    4.3270 C   0  0  0  0  0  0  0  0  0  0  0  0
  -11.1660    3.8760    5.4790 C   0  0  0  0  0  0  0  0  0  0  0  0
  -12.0160    7.8660    4.7150 O   0  0  0  0  0  0  0  0  0  0  0  0
   -6.8990    7.6510    9.7710 O   0  0  0  0  0  0  0  0  0  0  0  0
   -6.9653    2.8750    5.6372 C   0  0  0  0  0  0  0  0  0  0  0  0
   -7.1237    1.9264    4.6106 C   0  0  0  0  0  0  0  0  0  0  0  0
   -6.3281    0.7744    4.5206 O   0  0  0  0  0  0  0  0  0  0  0  0
   -5.2935    0.4374    5.4389 C   0  0  0  0  0  0  0  0  0  0  0  0
   -8.1076    2.1307    3.6392 C   0  0  0  0  0  0  0  0  0  0  0  0
   -8.9204    3.2657    3.6769 C   0  0  0  0  0  0  0  0  0  0  0  0
   -8.7642    4.2207    4.6990 C   0  0  0  0  0  0  0  0  0  0  0  0
   -9.5442    5.3882    4.7508 O   0  0  0  0  0  0  0  0  0  0  0  0
  -10.5728    5.7140    3.8222 C   0  0  0  0  0  0  0  0  0  0  0  0
  1  3  4  0
  1 14  4  0
  1  2  1  0
  3  4  4  0
  4  5  4  0
  5  6  4  0
  5 22  1  0
  6  7  1  0
  6 14  4  0
  7  8  1  0
  8  9  4  0
  8 12  4  0
  9 10  4  0
 10 11  4  0
 11 12  4  0
 12 13  1  0
 13 14  1  0
 13 15  1  6
 15 16  4  0
 15 20  4  0
 16 17  4  0
 17 18  4  0
 17 21  1  0
 18 19  4  0
 19 20  4  0
 23 24  4  0
 24 25  1  0
 25 26  1  0
 24 27  4  0
 27 28  4  0
 28 29  4  0
 29 30  1  0
 30 31  1  0
  2 23  4  0
  2 29  4  0
M  END
$$$$

     RDKit          3D

 50 57  0  0  0  0  0  0  0  0999 V2000
   -7.6410    4.9930    6.8080 C   0  0  0  0  0  0  0  0  0  1  0  0
   -7.7310    4.0530    5.7140 C   0  0  0  0  0  0  0  0  0  2  0  0
   -6.4520    5.6300    6.8680 N   0  0  0  0  0  0  0  0  0  0  0  0
   -6.2260    6.5240    7.8670 N   0  0  0  0  0  0  0  0  0  0  0  0
   -7.1930    6.7500    8.7820 C   0  0  0  0  0  0  0  0  0  0  0  0
   -8.4240    6.1170    8.7580 C   0  0  0  0  0  0  0  0  0  0  0  0
   -9.3950    6.3570    9.7450 N   0  0  0  0  0  0  0  0  0  0  0  0
  -10.5620    5.6840    9.7600 C   0  0  0  0  0  0  0  0  0  0  0  0
  -11.5770    5.6820   10.5960 N   0  0  0  0  0  0  0  0  0  0  0  0
  -12.4690    4.7490   10.1080 N   0  0  0  0  0  0  0  0  0  0  0  0
  -12.0160    4.1880    8.9920 N   0  0  0  0  0  0  0  0  0  0  0  0
  -10.8400    4.7900    8.7610 N   0  0  0  0  0  0  0  0  0  0  0  0
   -9.9950    4.4790    7.6090 C   0  0  0  0  0  0  0  0  0  0  0  0
   -8.6630    5.2070    7.7200 C   0  0  0  0  0  0  0  0  0  0  0  0
  -10.7490    4.8610    6.3730 C   0  0  0  0  0  0  0  0  0  0  0  0
  -11.0350    6.2020    6.1170 C   0  0  0  0  0  0  0  0  0  0  0  0
  -11.7370    6.5580    4.9650 C   0  0  0  0  0  0  0  0  0  0  0  0
  -12.1550    5.5730    4.0710 C   0  0  0  0  0  0  0  0  0  0  0  0
  -11.8700    4.2310    4.3270 C   0  0  0  0  0  0  0  0  0  0  0  0
  -11.1660    3.8760    5.4790 C   0  0  0  0  0  0  0  0  0  0  0  0
  -12.0160    7.8660    4.7150 O   0  0  0  0  0  0  0  0  0  0  0  0
   -6.8990    7.6510    9.7710 O   0  0  0  0  0  0  0  0  0  0  0  0
   -7.0121    2.8890    5.6952 N   0  0  0  0  0  0  0  0  0  0  0  0
   -7.1100    1.9160    4.7577 C   0  0  0  0  0  0  0  0  0  0  0  0
   -6.2658    0.8018    4.8320 C   0  0  0  0  0  0  0  0  0  0  0  0
   -6.3667   -0.2185    3.8854 C   0  0  0  0  0  0  0  0  0  0  0  0
   -7.3138   -0.1337    2.8637 C   0  0  0  0  0  0  0  0  0  0  0  0
   -8.1641    0.9731    2.7811 C   0  0  0  0  0  0  0  0  0  0  0  0
   -8.0674    2.0202    3.7236 C   0  0  0  0  0  0  0  0  0  0  0  0
   -8.8991    3.1643    3.6776 C   0  0  0  0  0  0  0  0  0  0  0  0
   -9.9151    3.3103    2.6096 C   0  0  0  0  0  0  0  0  0  0  0  0
  -11.1330    3.2111    2.9221 O   0  0  0  0  0  0  0  0  0  0  0  0
   -9.5353    3.5717    1.2406 N   0  0  0  0  0  0  0  0  0  0  0  0
  -10.4708    3.3170    0.1367 C   0  0  0  0  0  0  0  0  0  0  0  0
  -10.5855    4.5676   -0.7307 C   0  0  0  0  0  0  0  0  0  0  0  0
   -9.2433    5.0355   -1.0928 N   0  0  0  0  0  0  0  0  0  0  0  0
   -8.9217    5.3728   -2.4551 C   0  0  0  0  0  0  0  0  0  0  0  0
   -8.3531    6.6196   -2.7614 C   0  0  0  0  0  0  0  0  0  0  0  0
   -8.0563    6.9526   -4.0839 C   0  0  0  0  0  0  0  0  0  0  0  0
   -8.3154    6.0434   -5.1124 C   0  0  0  0  0  0  0  0  0  0  0  0
   -8.8558    4.7757   -4.8220 C   0  0  0  0  0  0  0  0  0  0  0  0
   -9.1696    3.7948   -5.9236 C   0  0  0  0  0  0  0  0  0  0  0  0
   -8.4307    4.0689   -7.0626 F   0  0  0  0  0  0  0  0  0  0  0  0
   -8.8732    2.5055   -5.5140 F   0  0  0  0  0  0  0  0  0  0  0  0
  -10.5158    3.8710   -6.2315 F   0  0  0  0  0  0  0  0  0  0  0  0
   -9.1753    4.4571   -3.4896 C   0  0  0  0  0  0  0  0  0  0  0  0
   -8.2826    5.2773   -0.0105 C   0  0  0  0  0  0  0  0  0  0  0  0
   -8.1869    4.0405    0.8861 C   0  0  0  0  0  0  0  0  0  0  0  0
   -8.7439    4.1832    4.6503 C   0  0  0  0  0  0  0  0  0  0  0  0
   -9.5776    5.4473    4.5815 C   0  0  0  0  0  0  0  0  0  0  0  0
  1  3  4  0
  1 14  4  0
  1  2  1  0
  3  4  4  0
  4  5  4  0
  5  6  4  0
  5 22  1  0
  6  7  1  0
  6 14  4  0
  7  8  1  0
  8  9  4  0
  8 12  4  0
  9 10  4  0
 10 11  4  0
 11 12  4  0
 12 13  1  0
 13 14  1  0
 13 15  1  6
 15 16  4  0
 15 20  4  0
 16 17  4  0
 17 18  4  0
 17 21  1  0
 18 19  4  0
 19 20  4  0
 23 24  4  0
 24 25  4  0
 25 26  4  0
 26 27  4  0
 27 28  4  0
 28 29  4  0
 29 30  4  0
 30 31  1  0
 31 32  2  0
 31 33  1  0
 33 34  1  0
 34 35  1  0
 35 36  1  0
 36 37  1  0
 37 38  4  0
 38 39  4  0
 39 40  4  0
 40 41  4  0
 41 42  1  0
 42 43  1  0
 42 44  1  0
 42 45  1  0
 41 46  4  0
 36 47  1  0
 47 48  1  0
 30 49  4  0
 49 50  1  0
 29 24  4  0
 48 33  1  0
 46 37  4  0
  2 23  4  0
  2 49  4  0
M  END
$$$$

     RDKit          3D

 50 57  0  0  0  0  0  0  0  0999 V2000
   -7.6410    4.9930    6.8080 C   0  0  0  0  0  0  0  0  0  1  0  0
   -7.7310    4.0530    5.7140 C   0  0  0  0  0  0  0  0  0  2  0  0
   -6.4520    5.6300    6.8680 N   0  0  0  0  0  0  0  0  0  0  0  0
   -6.2260    6.5240    7.8670 N   0  0  0  0  0  0  0  0  0  0  0  0
   -7.1930    6.7500    8.7820 C   0  0  0  0  0  0  0  0  0  0  0  0
   -8.4240    6.1170    8.7580 C   0  0  0  0  0  0  0  0  0  0  0  0
   -9.3950    6.3570    9.7450 N   0  0  0  0  0  0  0  0  0  0  0  0
  -10.5620    5.6840    9.7600 C   0  0  0  0  0  0  0  0  0  0  0  0
  -11.5770    5.6820   10.5960 N   0  0  0  0  0  0  0  0  0  0  0  0
  -12.4690    4.7490   10.1080 N   0  0  0  0  0  0  0  0  0  0  0  0
  -12.0160    4.1880    8.9920 N   0  0  0  0  0  0  0  0  0  0  0  0
  -10.8400    4.7900    8.7610 N   0  0  0  0  0  0  0  0  0  0  0  0
   -9.9950    4.4790    7.6090 C   0  0  0  0  0  0  0  0  0  0  0  0
   -8.6630    5.2070    7.7200 C   0  0  0  0  0  0  0  0  0  0  0  0
  -10.7490    4.8610    6.3730 C   0  0  0  0  0  0  0  0  0  0  0  0
  -11.0350    6.2020    6.1170 C   0  0  0  0  0  0  0  0  0  0  0  0
  -11.7370    6.5580    4.9650 C   0  0  0  0  0  0  0  0  0  0  0  0
  -12.1550    5.5730    4.0710 C   0  0  0  0  0  0  0  0  0  0  0  0
  -11.8700    4.2310    4.3270 C   0  0  0  0  0  0  0  0  0  0  0  0
  -11.1660    3.8760    5.4790 C   0  0  0  0  0  0  0  0  0  0  0  0
  -12.0160    7.8660    4.7150 O   0  0  0  0  0  0  0  0  0  0  0  0
   -6.8990    7.6510    9.7710 O   0  0  0  0  0  0  0  0  0  0  0  0
   -7.0657    2.8540    5.7362 N   0  0  0  0  0  0  0  0  0  0  0  0
   -7.1685    1.8791    4.8004 C   0  0  0  0  0  0  0  0  0  0  0  0
   -6.3818    0.7271    4.9150 C   0  0  0  0  0  0  0  0  0  0  0  0
   -6.4826   -0.2899    3.9639 C   0  0  0  0  0  0  0  0  0  0  0  0
   -7.3744   -0.1639    2.8974 C   0  0  0  0  0  0  0  0  0  0  0  0
   -8.1681    0.9807    2.7754 C   0  0  0  0  0  0  0  0  0  0  0  0
   -8.0711    2.0221    3.7238 C   0  0  0  0  0  0  0  0  0  0  0  0
   -8.8432    3.2048    3.6340 C   0  0  0  0  0  0  0  0  0  0  0  0
   -9.8035    3.3852    2.5213 C   0  0  0  0  0  0  0  0  0  0  0  0
  -11.0216    3.1359    2.7347 O   0  0  0  0  0  0  0  0  0  0  0  0
   -9.3664    3.8404    1.2218 N   0  0  0  0  0  0  0  0  0  0  0  0
   -7.9631    4.2386    1.0164 C   0  0  0  0  0  0  0  0  0  0  0  0
   -7.6578    4.5056   -0.4608 C   0  0  0  0  0  0  0  0  0  0  0  0
   -8.6864    5.3745   -1.0502 N   0  0  0  0  0  0  0  0  0  0  0  0
   -8.3191    6.3866   -2.0142 C   0  0  0  0  0  0  0  0  0  0  0  0
   -8.9784    7.6281   -2.0386 C   0  0  0  0  0  0  0  0  0  0  0  0
   -8.6257    8.5998   -2.9792 C   0  0  0  0  0  0  0  0  0  0  0  0
   -7.6109    8.3473   -3.9037 C   0  0  0  0  0  0  0  0  0  0  0  0
   -6.9253    7.1207   -3.8879 C   0  0  0  0  0  0  0  0  0  0  0  0
   -5.8672    6.8213   -4.9191 C   0  0  0  0  0  0  0  0  0  0  0  0
   -4.9019    5.9757   -4.3949 F   0  0  0  0  0  0  0  0  0  0  0  0
   -6.4572    6.2096   -6.0120 F   0  0  0  0  0  0  0  0  0  0  0  0
   -5.2424    7.9863   -5.3366 F   0  0  0  0  0  0  0  0  0  0  0  0
   -7.3031    6.1381   -2.9562 C   0  0  0  0  0  0  0  0  0  0  0  0
  -10.1048    5.1528   -0.7243 C   0  0  0  0  0  0  0  0  0  0  0  0
  -10.3017    3.8686    0.0871 C   0  0  0  0  0  0  0  0  0  0  0  0
   -8.6902    4.2192    4.6110 C   0  0  0  0  0  0  0  0  0  0  0  0
   -9.4922    5.5014    4.5246 C   0  0  0  0  0  0  0  0  0  0  0  0
  1  3  4  0
  1 14  4  0
  1  2  1  0
  3  4  4  0
  4  5  4  0
  5  6  4  0
  5 22  1  0
  6  7  1  0
  6 14  4  0
  7  8  1  0
  8  9  4  0
  8 12  4  0
  9 10  4  0
 10 11  4  0
 11 12  4  0
 12 13  1  0
 13 14  1  0
 13 15  1  6
 15 16  4  0
 15 20  4  0
 16 17  4  0
 17 18  4  0
 17 21  1  0
 18 19  4  0
 19 20  4  0
 23 24  4  0
 24 25  4  0
 25 26  4  0
 26 27  4  0
 27 28  4  0
 28 29  4  0
 29 30  4  0
 30 31  1  0
 31 32  2  0
 31 33  1  0
 33 34  1  0
 34 35  1  0
 35 36  1  0
 36 37  1  0
 37 38  4  0
 38 39  4  0
 39 40  4  0
 40 41  4  0
 41 42  1  0
 42 43  1  0
 42 44  1  0
 42 45  1  0
 41 46  4  0
 36 47  1  0
 47 48  1  0
 30 49  4  0
 49 50  1  0
 29 24  4  0
 48 33  1  0
 46 37  4  0
  2 23  4  0
  2 49  4  0
M  END
$$$$

     RDKit          3D

 50 57  0  0  0  0  0  0  0  0999 V2000
   -7.6410    4.9930    6.8080 C   0  0  0  0  0  0  0  0  0  1  0  0
   -7.7310    4.0530    5.7140 C   0  0  0  0  0  0  0  0  0  2  0  0
   -6.4520    5.6300    6.8680 N   0  0  0  0  0  0  0  0  0  0  0  0
   -6.2260    6.5240    7.8670 N   0  0  0  0  0  0  0  0  0  0  0  0
   -7.1930    6.7500    8.7820 C   0  0  0  0  0  0  0  0  0  0  0  0
   -8.4240    6.1170    8.7580 C   0  0  0  0  0  0  0  0  0  0  0  0
   -9.3950    6.3570    9.7450 N   0  0  0  0  0  0  0  0  0  0  0  0
  -10.5620    5.6840    9.7600 C   0  0  0  0  0  0  0  0  0  0  0  0
  -11.5770    5.6820   10.5960 N   0  0  0  0  0  0  0  0  0  0  0  0
  -12.4690    4.7490   10.1080 N   0  0  0  0  0  0  0  0  0  0  0  0
  -12.0160    4.1880    8.9920 N   0  0  0  0  0  0  0  0  0  0  0  0
  -10.8400    4.7900    8.7610 N   0  0  0  0  0  0  0  0  0  0  0  0
   -9.9950    4.4790    7.6090 C   0  0  0  0  0  0  0  0  0  0  0  0
   -8.6630    5.2070    7.7200 C   0  0  0  0  0  0  0  0  0  0  0  0
  -10.7490    4.8610    6.3730 C   0  0  0  0  0  0  0  0  0  0  0  0
  -11.0350    6.2020    6.1170 C   0  0  0  0  0  0  0  0  0  0  0  0
  -11.7370    6.5580    4.9650 C   0  0  0  0  0  0  0  0  0  0  0  0
  -12.1550    5.5730    4.0710 C   0  0  0  0  0  0  0  0  0  0  0  0
  -11.8700    4.2310    4.3270 C   0  0  0  0  0  0  0  0  0  0  0  0
  -11.1660    3.8760    5.4790 C   0  0  0  0  0  0  0  0  0  0  0  0
  -12.0160    7.8660    4.7150 O   0  0  0  0  0  0  0  0  0  0  0  0
   -6.8990    7.6510    9.7710 O   0  0  0  0  0  0  0  0  0  0  0  0
   -7.0284    2.8772    5.7061 N   0  0  0  0  0  0  0  0  0  0  0  0
   -7.1401    1.8965    4.7777 C   0  0  0  0  0  0  0  0  0  0  0  0
   -6.3190    0.7649    4.8676 C   0  0  0  0  0  0  0  0  0  0  0  0
   -6.4426   -0.2673    3.9352 C   0  0  0  0  0  0  0  0  0  0  0  0
   -7.3880   -0.1771    2.9121 C   0  0  0  0  0  0  0  0  0  0  0  0
   -8.2118    0.9481    2.8120 C   0  0  0  0  0  0  0  0  0  0  0  0
   -8.0951    2.0052    3.7417 C   0  0  0  0  0  0  0  0  0  0  0  0
   -8.9046    3.1648    3.6790 C   0  0  0  0  0  0  0  0  0  0  0  0
   -9.9298    3.3054    2.6182 C   0  0  0  0  0  0  0  0  0  0  0  0
  -11.1419    3.1633    2.9357 O   0  0  0  0  0  0  0  0  0  0  0  0
   -9.5632    3.6123    1.2548 N   0  0  0  0  0  0  0  0  0  0  0  0
  -10.5504    3.4812    0.1733 C   0  0  0  0  0  0  0  0  0  0  0  0
  -10.4388    4.6668   -0.7891 C   0  0  0  0  0  0  0  0  0  0  0  0
   -9.0503    4.8748   -1.2311 N   0  0  0  0  0  0  0  0  0  0  0  0
   -8.7962    5.6544   -2.4216 C   0  0  0  0  0  0  0  0  0  0  0  0
   -9.5286    6.8279   -2.6751 C   0  0  0  0  0  0  0  0  0  0  0  0
   -9.3061    7.5640   -3.8410 C   0  0  0  0  0  0  0  0  0  0  0  0
   -8.3457    7.1459   -4.7641 C   0  0  0  0  0  0  0  0  0  0  0  0
   -7.5808    5.9919   -4.5200 C   0  0  0  0  0  0  0  0  0  0  0  0
   -6.5762    5.5035   -5.5339 C   0  0  0  0  0  0  0  0  0  0  0  0
   -5.4838    4.9395   -4.8958 F   0  0  0  0  0  0  0  0  0  0  0  0
   -6.1243    6.5455   -6.3269 F   0  0  0  0  0  0  0  0  0  0  0  0
   -7.1699    4.5491   -6.3403 F   0  0  0  0  0  0  0  0  0  0  0  0
   -7.8287    5.2402   -3.3577 C   0  0  0  0  0  0  0  0  0  0  0  0
   -7.9548    4.1460   -0.5746 C   0  0  0  0  0  0  0  0  0  0  0  0
   -8.1915    4.0455    0.9377 C   0  0  0  0  0  0  0  0  0  0  0  0
   -8.7427    4.1858    4.6484 C   0  0  0  0  0  0  0  0  0  0  0  0
   -9.5838    5.4439    4.5900 C   0  0  0  0  0  0  0  0  0  0  0  0
  1  3  4  0
  1 14  4  0
  1  2  1  0
  3  4  4  0
  4  5  4  0
  5  6  4  0
  5 22  1  0
  6  7  1  0
  6 14  4  0
  7  8  1  0
  8  9  4  0
  8 12  4  0
  9 10  4  0
 10 11  4  0
 11 12  4  0
 12 13  1  0
 13 14  1  0
 13 15  1  6
 15 16  4  0
 15 20  4  0
 16 17  4  0
 17 18  4  0
 17 21  1  0
 18 19  4  0
 19 20  4  0
 23 24  4  0
 24 25  4  0
 25 26  4  0
 26 27  4  0
 27 28  4  0
 28 29  4  0
 29 30  4  0
 30 31  1  0
 31 32  2  0
 31 33  1  0
 33 34  1  0
 34 35  1  0
 35 36  1  0
 36 37  1  0
 37 38  4  0
 38 39  4  0
 39 40  4  0
 40 41  4  0
 41 42  1  0
 42 43  1  0
 42 44  1  0
 42 45  1  0
 41 46  4  0
 36 47  1  0
 47 48  1  0
 30 49  4  0
 49 50  1  0
 29 24  4  0
 48 33  1  0
 46 37  4  0
  2 23  4  0
  2 49  4  0
M  END
$$$$

     RDKit          3D

 44 49  0  0  0  0  0  0  0  0999 V2000
   -7.6410    4.9930    6.8080 C   0  0  0  0  0  0  0  0  0  1  0  0
   -7.7310    4.0530    5.7140 C   0  0  0  0  0  0  0  0  0  2  0  0
   -6.4520    5.6300    6.8680 N   0  0  0  0  0  0  0  0  0  0  0  0
   -6.2260    6.5240    7.8670 N   0  0  0  0  0  0  0  0  0  0  0  0
   -7.1930    6.7500    8.7820 C   0  0  0  0  0  0  0  0  0  0  0  0
   -8.4240    6.1170    8.7580 C   0  0  0  0  0  0  0  0  0  0  0  0
   -9.3950    6.3570    9.7450 N   0  0  0  0  0  0  0  0  0  0  0  0
  -10.5620    5.6840    9.7600 C   0  0  0  0  0  0  0  0  0  0  0  0
  -11.5770    5.6820   10.5960 N   0  0  0  0  0  0  0  0  0  0  0  0
  -12.4690    4.7490   10.1080 N   0  0  0  0  0  0  0  0  0  0  0  0
  -12.0160    4.1880    8.9920 N   0  0  0  0  0  0  0  0  0  0  0  0
  -10.8400    4.7900    8.7610 N   0  0  0  0  0  0  0  0  0  0  0  0
   -9.9950    4.4790    7.6090 C   0  0  0  0  0  0  0  0  0  0  0  0
   -8.6630    5.2070    7.7200 C   0  0  0  0  0  0  0  0  0  0  0  0
  -10.7490    4.8610    6.3730 C   0  0  0  0  0  0  0  0  0  0  0  0
  -11.0350    6.2020    6.1170 C   0  0  0  0  0  0  0  0  0  0  0  0
  -11.7370    6.5580    4.9650 C   0  0  0  0  0  0  0  0  0  0  0  0
  -12.1550    5.5730    4.0710 C   0  0  0  0  0  0  0  0  0  0  0  0
  -11.8700    4.2310    4.3270 C   0  0  0  0  0  0  0  0  0  0  0  0
  -11.1660    3.8760    5.4790 C   0  0  0  0  0  0  0  0  0  0  0  0
  -12.0160    7.8660    4.7150 O   0  0  0  0  0  0  0  0  0  0  0  0
   -6.8990    7.6510    9.7710 O   0  0  0  0  0  0  0  0  0  0  0  0
   -7.0028    2.8556    5.6357 C   0  0  0  0  0  0  0  0  0  0  0  0
   -7.4400    1.9892    4.2727 S   0  0  0  0  0  0  0  0  0  0  0  0
   -8.6158    3.0988    3.7838 C   0  0  0  0  0  0  0  0  0  0  0  0
   -9.3092    3.0064    2.6762 N   0  0  0  0  0  0  0  0  0  0  0  0
   -9.1961    1.9212    1.7408 C   0  0  0  0  0  0  0  0  0  0  0  0
   -8.9975    2.2062    0.3848 C   0  0  0  0  0  0  0  0  0  0  0  0
   -8.9430    1.1740   -0.5522 C   0  0  0  0  0  0  0  0  0  0  0  0
   -9.0930   -0.1532   -0.1451 C   0  0  0  0  0  0  0  0  0  0  0  0
   -9.2977   -0.4610    1.2109 C   0  0  0  0  0  0  0  0  0  0  0  0
   -9.5310   -1.8894    1.6353 C   0  0  0  0  0  0  0  0  0  0  0  0
   -8.7426   -2.7505    0.8903 F   0  0  0  0  0  0  0  0  0  0  0  0
  -10.8608   -2.2106    1.4381 F   0  0  0  0  0  0  0  0  0  0  0  0
   -9.2182   -2.0652    2.9739 F   0  0  0  0  0  0  0  0  0  0  0  0
   -9.3790    0.5879    2.1455 C   0  0  0  0  0  0  0  0  0  0  0  0
   -8.6830    4.1528    4.6556 N   0  0  0  0  0  0  0  0  0  0  0  0
   -9.5037    5.3669    4.4701 C   0  0  0  0  0  0  0  0  0  0  0  0
   -8.6932    6.5094    3.8362 C   0  0  0  0  0  0  0  0  0  0  0  0
   -8.2087    6.1741    2.4161 C   0  0  0  0  0  0  0  0  0  0  0  0
   -7.3980    7.3156    1.7845 C   0  0  0  0  0  0  0  0  0  0  0  0
   -8.2855    8.4771    1.3113 C   0  0  0  0  0  0  0  0  0  0  0  0
   -7.4604    9.5315    0.5682 C   0  0  0  0  0  0  0  0  0  0  0  0
   -8.2716   10.6120    0.1970 O   0  0  0  0  0  0  0  0  0  0  0  0
  1  3  4  0
  1 14  4  0
  1  2  1  0
  3  4  4  0
  4  5  4  0
  5  6  4  0
  5 22  1  0
  6  7  1  0
  6 14  4  0
  7  8  1  0
  8  9  4  0
  8 12  4  0
  9 10  4  0
 10 11  4  0
 11 12  4  0
 12 13  1  0
 13 14  1  0
 13 15  1  6
 15 16  4  0
 15 20  4  0
 16 17  4  0
 17 18  4  0
 17 21  1  0
 18 19  4  0
 19 20  4  0
 23 24  4  0
 24 25  4  0
 25 26  2  3
 26 27  1  0
 27 28  4  0
 28 29  4  0
 29 30  4  0
 30 31  4  0
 31 32  1  0
 32 33  1  0
 32 34  1  0
 32 35  1  0
 31 36  4  0
 25 37  4  0
 37 38  1  0
 38 39  1  0
 39 40  1  0
 40 41  1  0
 41 42  1  0
 42 43  1  0
 43 44  1  0
 36 27  4  0
  2 23  4  0
  2 37  4  0
M  CHG  1  26   1
M  END
$$$$

     RDKit          3D

 44 50  0  0  0  0  0  0  0  0999 V2000
   -7.6410    4.9930    6.8080 C   0  0  0  0  0  0  0  0  0  1  0  0
   -7.7310    4.0530    5.7140 C   0  0  0  0  0  0  0  0  0  2  0  0
   -6.4520    5.6300    6.8680 N   0  0  0  0  0  0  0  0  0  0  0  0
   -6.2260    6.5240    7.8670 N   0  0  0  0  0  0  0  0  0  0  0  0
   -7.1930    6.7500    8.7820 C   0  0  0  0  0  0  0  0  0  0  0  0
   -8.4240    6.1170    8.7580 C   0  0  0  0  0  0  0  0  0  0  0  0
   -9.3950    6.3570    9.7450 N   0  0  0  0  0  0  0  0  0  0  0  0
  -10.5620    5.6840    9.7600 C   0  0  0  0  0  0  0  0  0  0  0  0
  -11.5770    5.6820   10.5960 N   0  0  0  0  0  0  0  0  0  0  0  0
  -12.4690    4.7490   10.1080 N   0  0  0  0  0  0  0  0  0  0  0  0
  -12.0160    4.1880    8.9920 N   0  0  0  0  0  0  0  0  0  0  0  0
  -10.8400    4.7900    8.7610 N   0  0  0  0  0  0  0  0  0  0  0  0
   -9.9950    4.4790    7.6090 C   0  0  0  0  0  0  0  0  0  0  0  0
   -8.6630    5.2070    7.7200 C   0  0  0  0  0  0  0  0  0  0  0  0
  -10.7490    4.8610    6.3730 C   0  0  0  0  0  0  0  0  0  0  0  0
  -11.0350    6.2020    6.1170 C   0  0  0  0  0  0  0  0  0  0  0  0
  -11.7370    6.5580    4.9650 C   0  0  0  0  0  0  0  0  0  0  0  0
  -12.1550    5.5730    4.0710 C   0  0  0  0  0  0  0  0  0  0  0  0
  -11.8700    4.2310    4.3270 C   0  0  0  0  0  0  0  0  0  0  0  0
  -11.1660    3.8760    5.4790 C   0  0  0  0  0  0  0  0  0  0  0  0
  -12.0160    7.8660    4.7150 O   0  0  0  0  0  0  0  0  0  0  0  0
   -6.8990    7.6510    9.7710 O   0  0  0  0  0  0  0  0  0  0  0  0
   -8.7179    4.1688    4.6508 C   0  0  0  0  0  0  0  0  0  0  0  0
   -9.7112    5.2783    4.5234 C   0  0  0  0  0  0  0  0  0  0  0  0
   -8.5679    2.9047    3.5383 S   0  0  0  0  0  0  0  0  0  0  0  0
   -7.3235    2.1529    4.3629 C   0  0  0  0  0  0  0  0  0  0  0  0
   -6.6825    1.0242    3.9919 N   0  0  0  0  0  0  0  0  0  0  0  0
   -5.6926    0.5312    4.7841 C   0  0  0  0  0  0  0  0  0  0  0  0
   -5.3623    1.1438    5.9742 N   0  0  0  0  0  0  0  0  0  0  0  0
   -4.2885    0.5599    6.8192 C   0  0  0  0  0  0  0  0  0  0  0  0
   -2.9398    0.6444    6.0927 C   0  0  0  0  0  0  0  0  0  0  0  0
   -4.5950   -0.8652    7.2302 C   0  0  0  0  0  0  0  0  0  0  0  0
   -5.6965   -1.3970    6.9199 O   0  0  0  0  0  0  0  0  0  0  0  0
   -3.6580   -1.5894    8.0391 N   0  0  0  0  0  0  0  0  0  0  0  0
   -3.6183   -3.0263    8.1109 C   0  0  0  0  0  0  0  0  0  0  0  0
   -3.1977   -3.6489    9.2956 C   0  0  0  0  0  0  0  0  0  0  0  0
   -3.1464   -5.0415    9.3791 C   0  0  0  0  0  0  0  0  0  0  0  0
   -3.4959   -5.8258    8.2758 C   0  0  0  0  0  0  0  0  0  0  0  0
   -3.4424   -7.5776    8.3882 Cl  0  0  0  0  0  0  0  0  0  0  0  0
   -3.9012   -5.2138    7.0860 C   0  0  0  0  0  0  0  0  0  0  0  0
   -3.9572   -3.8213    7.0002 C   0  0  0  0  0  0  0  0  0  0  0  0
   -6.0087    2.3067    6.3475 C   0  0  0  0  0  0  0  0  0  0  0  0
   -5.7229    2.8813    7.4335 O   0  0  0  0  0  0  0  0  0  0  0  0
   -7.0037    2.8409    5.5131 C   0  0  0  0  0  0  0  0  0  0  0  0
  1  3  4  0
  1 14  4  0
  1  2  1  0
  3  4  4  0
  4  5  4  0
  5  6  4  0
  5 22  1  0
  6  7  1  0
  6 14  4  0
  7  8  1  0
  8  9  4  0
  8 12  4  0
  9 10  4  0
 10 11  4  0
 11 12  4  0
 12 13  1  0
 13 14  1  0
 13 15  1  6
 15 16  4  0
 15 20  4  0
 16 17  4  0
 17 18  4  0
 17 21  1  0
 18 19  4  0
 19 20  4  0
 23 24  1  0
 23 25  4  0
 25 26  4  0
 26 27  4  0
 27 28  4  0
 28 29  4  0
 29 30  1  0
 30 31  1  0
 30 32  1  0
 32 33  2  0
 32 34  1  0
 34 35  1  0
 35 36  4  0
 36 37  4  0
 37 38  4  0
 38 39  1  0
 38 40  4  0
 40 41  4  0
 29 42  4  0
 42 43  2  0
 42 44  4  0
 44 26  4  0
 41 35  4  0
  2 23  4  0
  2 44  4  0
M  END
$$$$

     RDKit          3D

 32 37  0  0  0  0  0  0  0  0999 V2000
   -7.6410    4.9930    6.8080 C   0  0  0  0  0  0  0  0  0  1  0  0
   -7.7310    4.0530    5.7140 C   0  0  0  0  0  0  0  0  0  2  0  0
   -6.4520    5.6300    6.8680 N   0  0  0  0  0  0  0  0  0  0  0  0
   -6.2260    6.5240    7.8670 N   0  0  0  0  0  0  0  0  0  0  0  0
   -7.1930    6.7500    8.7820 C   0  0  0  0  0  0  0  0  0  0  0  0
   -8.4240    6.1170    8.7580 C   0  0  0  0  0  0  0  0  0  0  0  0
   -9.3950    6.3570    9.7450 N   0  0  0  0  0  0  0  0  0  0  0  0
  -10.5620    5.6840    9.7600 C   0  0  0  0  0  0  0  0  0  0  0  0
  -11.5770    5.6820   10.5960 N   0  0  0  0  0  0  0  0  0  0  0  0
  -12.4690    4.7490   10.1080 N   0  0  0  0  0  0  0  0  0  0  0  0
  -12.0160    4.1880    8.9920 N   0  0  0  0  0  0  0  0  0  0  0  0
  -10.8400    4.7900    8.7610 N   0  0  0  0  0  0  0  0  0  0  0  0
   -9.9950    4.4790    7.6090 C   0  0  0  0  0  0  0  0  0  0  0  0
   -8.6630    5.2070    7.7200 C   0  0  0  0  0  0  0  0  0  0  0  0
  -10.7490    4.8610    6.3730 C   0  0  0  0  0  0  0  0  0  0  0  0
  -11.0350    6.2020    6.1170 C   0  0  0  0  0  0  0  0  0  0  0  0
  -11.7370    6.5580    4.9650 C   0  0  0  0  0  0  0  0  0  0  0  0
  -12.1550    5.5730    4.0710 C   0  0  0  0  0  0  0  0  0  0  0  0
  -11.8700    4.2310    4.3270 C   0  0  0  0  0  0  0  0  0  0  0  0
  -11.1660    3.8760    5.4790 C   0  0  0  0  0  0  0  0  0  0  0  0
  -12.0160    7.8660    4.7150 O   0  0  0  0  0  0  0  0  0  0  0  0
   -6.8990    7.6510    9.7710 O   0  0  0  0  0  0  0  0  0  0  0  0
   -8.6576    4.2333    4.6122 C   0  0  0  0  0  0  0  0  0  0  0  0
   -9.5708    5.4066    4.4471 C   0  0  0  0  0  0  0  0  0  0  0  0
   -8.4518    3.0313    3.4439 S   0  0  0  0  0  0  0  0  0  0  0  0
   -7.2723    2.2119    4.3016 C   0  0  0  0  0  0  0  0  0  0  0  0
   -6.6111    1.1069    3.8871 N   0  0  0  0  0  0  0  0  0  0  0  0
   -5.6568    0.5699    4.6936 C   0  0  0  0  0  0  0  0  0  0  0  0
   -5.3925    1.1259    5.9100 N   0  0  0  0  0  0  0  0  0  0  0  0
   -6.0507    2.2343    6.3583 C   0  0  0  0  0  0  0  0  0  0  0  0
   -5.7856    2.6973    7.6843 N   0  0  0  0  0  0  0  0  0  0  0  0
   -7.0117    2.8318    5.5138 C   0  0  0  0  0  0  0  0  0  0  0  0
  1  3  4  0
  1 14  4  0
  1  2  1  0
  3  4  4  0
  4  5  4  0
  5  6  4  0
  5 22  1  0
  6  7  1  0
  6 14  4  0
  7  8  1  0
  8  9  4  0
  8 12  4  0
  9 10  4  0
 10 11  4  0
 11 12  4  0
 12 13  1  0
 13 14  1  0
 13 15  1  6
 15 16  4  0
 15 20  4  0
 16 17  4  0
 17 18  4  0
 17 21  1  0
 18 19  4  0
 19 20  4  0
 23 24  1  0
 23 25  4  0
 25 26  4  0
 26 27  4  0
 27 28  4  0
 28 29  4  0
 29 30  4  0
 30 31  1  0
 30 32  4  0
 32 26  4  0
  2 23  4  0
  2 32  4  0
M  END
$$$$

     RDKit          3D

 32 37  0  0  0  0  0  0  0  0999 V2000
   -7.6410    4.9930    6.8080 C   0  0  0  0  0  0  0  0  0  1  0  0
   -7.7310    4.0530    5.7140 C   0  0  0  0  0  0  0  0  0  2  0  0
   -6.4520    5.6300    6.8680 N   0  0  0  0  0  0  0  0  0  0  0  0
   -6.2260    6.5240    7.8670 N   0  0  0  0  0  0  0  0  0  0  0  0
   -7.1930    6.7500    8.7820 C   0  0  0  0  0  0  0  0  0  0  0  0
   -8.4240    6.1170    8.7580 C   0  0  0  0  0  0  0  0  0  0  0  0
   -9.3950    6.3570    9.7450 N   0  0  0  0  0  0  0  0  0  0  0  0
  -10.5620    5.6840    9.7600 C   0  0  0  0  0  0  0  0  0  0  0  0
  -11.5770    5.6820   10.5960 N   0  0  0  0  0  0  0  0  0  0  0  0
  -12.4690    4.7490   10.1080 N   0  0  0  0  0  0  0  0  0  0  0  0
  -12.0160    4.1880    8.9920 N   0  0  0  0  0  0  0  0  0  0  0  0
  -10.8400    4.7900    8.7610 N   0  0  0  0  0  0  0  0  0  0  0  0
   -9.9950    4.4790    7.6090 C   0  0  0  0  0  0  0  0  0  0  0  0
   -8.6630    5.2070    7.7200 C   0  0  0  0  0  0  0  0  0  0  0  0
  -10.7490    4.8610    6.3730 C   0  0  0  0  0  0  0  0  0  0  0  0
  -11.0350    6.2020    6.1170 C   0  0  0  0  0  0  0  0  0  0  0  0
  -11.7370    6.5580    4.9650 C   0  0  0  0  0  0  0  0  0  0  0  0
  -12.1550    5.5730    4.0710 C   0  0  0  0  0  0  0  0  0  0  0  0
  -11.8700    4.2310    4.3270 C   0  0  0  0  0  0  0  0  0  0  0  0
  -11.1660    3.8760    5.4790 C   0  0  0  0  0  0  0  0  0  0  0  0
  -12.0160    7.8660    4.7150 O   0  0  0  0  0  0  0  0  0  0  0  0
   -6.8990    7.6510    9.7710 O   0  0  0  0  0  0  0  0  0  0  0  0
   -7.0909    2.7870    5.6661 C   0  0  0  0  0  0  0  0  0  0  0  0
   -6.0556    2.3475    6.6506 C   0  0  0  0  0  0  0  0  0  0  0  0
   -7.6553    1.8273    4.3973 S   0  0  0  0  0  0  0  0  0  0  0  0
   -8.7731    2.9534    3.8675 C   0  0  0  0  0  0  0  0  0  0  0  0
   -9.6434    2.7897    2.8456 N   0  0  0  0  0  0  0  0  0  0  0  0
  -10.5110    3.7951    2.5551 C   0  0  0  0  0  0  0  0  0  0  0  0
  -10.4838    4.9570    3.2691 N   0  0  0  0  0  0  0  0  0  0  0  0
   -9.6115    5.1519    4.2985 C   0  0  0  0  0  0  0  0  0  0  0  0
   -9.5738    6.4356    4.9294 N   0  0  0  0  0  0  0  0  0  0  0  0
   -8.7338    4.1003    4.6423 C   0  0  0  0  0  0  0  0  0  0  0  0
  1  3  4  0
  1 14  4  0
  1  2  1  0
  3  4  4  0
  4  5  4  0
  5  6  4  0
  5 22  1  0
  6  7  1  0
  6 14  4  0
  7  8  1  0
  8  9  4  0
  8 12  4  0
  9 10  4  0
 10 11  4  0
 11 12  4  0
 12 13  1  0
 13 14  1  0
 13 15  1  6
 15 16  4  0
 15 20  4  0
 16 17  4  0
 17 18  4  0
 17 21  1  0
 18 19  4  0
 19 20  4  0
 23 24  1  0
 23 25  4  0
 25 26  4  0
 26 27  4  0
 27 28  4  0
 28 29  4  0
 29 30  4  0
 30 31  1  0
 30 32  4  0
 32 26  4  0
  2 23  4  0
  2 32  4  0
M  END
$$$$

     RDKit          3D

 43 49  0  0  0  0  0  0  0  0999 V2000
   -7.6410    4.9930    6.8080 C   0  0  0  0  0  0  0  0  0  1  0  0
   -7.7310    4.0530    5.7140 C   0  0  0  0  0  0  0  0  0  2  0  0
   -6.4520    5.6300    6.8680 N   0  0  0  0  0  0  0  0  0  0  0  0
   -6.2260    6.5240    7.8670 N   0  0  0  0  0  0  0  0  0  0  0  0
   -7.1930    6.7500    8.7820 C   0  0  0  0  0  0  0  0  0  0  0  0
   -8.4240    6.1170    8.7580 C   0  0  0  0  0  0  0  0  0  0  0  0
   -9.3950    6.3570    9.7450 N   0  0  0  0  0  0  0  0  0  0  0  0
  -10.5620    5.6840    9.7600 C   0  0  0  0  0  0  0  0  0  0  0  0
  -11.5770    5.6820   10.5960 N   0  0  0  0  0  0  0  0  0  0  0  0
  -12.4690    4.7490   10.1080 N   0  0  0  0  0  0  0  0  0  0  0  0
  -12.0160    4.1880    8.9920 N   0  0  0  0  0  0  0  0  0  0  0  0
  -10.8400    4.7900    8.7610 N   0  0  0  0  0  0  0  0  0  0  0  0
   -9.9950    4.4790    7.6090 C   0  0  0  0  0  0  0  0  0  0  0  0
   -8.6630    5.2070    7.7200 C   0  0  0  0  0  0  0  0  0  0  0  0
  -10.7490    4.8610    6.3730 C   0  0  0  0  0  0  0  0  0  0  0  0
  -11.0350    6.2020    6.1170 C   0  0  0  0  0  0  0  0  0  0  0  0
  -11.7370    6.5580    4.9650 C   0  0  0  0  0  0  0  0  0  0  0  0
  -12.1550    5.5730    4.0710 C   0  0  0  0  0  0  0  0  0  0  0  0
  -11.8700    4.2310    4.3270 C   0  0  0  0  0  0  0  0  0  0  0  0
  -11.1660    3.8760    5.4790 C   0  0  0  0  0  0  0  0  0  0  0  0
  -12.0160    7.8660    4.7150 O   0  0  0  0  0  0  0  0  0  0  0  0
   -6.8990    7.6510    9.7710 O   0  0  0  0  0  0  0  0  0  0  0  0
   -6.7611    3.1524    5.3947 N   0  0  0  0  0  0  0  0  0  0  0  0
   -6.8404    2.2236    4.4281 N   0  0  0  0  0  0  0  0  0  0  0  0
   -5.6796    1.3539    4.2100 C   0  0  0  0  0  0  0  0  0  0  0  0
   -4.9177    1.7798    2.9818 C   0  0  0  0  0  0  0  0  0  0  0  0
   -4.7277    3.0125    2.7697 O   0  0  0  0  0  0  0  0  0  0  0  0
   -4.4211    0.8143    2.0373 N   0  0  0  0  0  0  0  0  0  0  0  0
   -4.1062   -0.5460    2.3841 C   0  0  0  0  0  0  0  0  0  0  0  0
   -3.4194   -0.8261    3.5780 C   0  0  0  0  0  0  0  0  0  0  0  0
   -3.0857   -2.1398    3.9141 C   0  0  0  0  0  0  0  0  0  0  0  0
   -3.4332   -3.1873    3.0605 C   0  0  0  0  0  0  0  0  0  0  0  0
   -4.1046   -2.9241    1.8647 C   0  0  0  0  0  0  0  0  0  0  0  0
   -4.4460   -1.6064    1.5126 C   0  0  0  0  0  0  0  0  0  0  0  0
   -5.1397   -1.3411    0.2036 C   0  0  0  0  0  0  0  0  0  0  0  0
   -7.9742    2.1045    3.6584 C   0  0  0  0  0  0  0  0  0  0  0  0
   -8.0507    1.2434    2.7362 O   0  0  0  0  0  0  0  0  0  0  0  0
   -9.0436    2.9601    3.9100 C   0  0  0  0  0  0  0  0  0  0  0  0
  -10.2048    2.9783    3.2024 N   0  0  0  0  0  0  0  0  0  0  0  0
  -11.0407    3.9389    3.6665 C   0  0  0  0  0  0  0  0  0  0  0  0
  -12.3468    4.2642    3.0255 C   0  0  0  0  0  0  0  0  0  0  0  0
  -10.3523    4.8256    4.9348 S   0  0  0  0  0  0  0  0  0  0  0  0
   -8.9465    3.8991    4.9194 C   0  0  0  0  0  0  0  0  0  0  0  0
  1  3  4  0
  1 14  4  0
  1  2  1  0
  3  4  4  0
  4  5  4  0
  5  6  4  0
  5 22  1  0
  6  7  1  0
  6 14  4  0
  7  8  1  0
  8  9  4  0
  8 12  4  0
  9 10  4  0
 10 11  4  0
 11 12  4  0
 12 13  1  0
 13 14  1  0
 13 15  1  6
 15 16  4  0
 15 20  4  0
 16 17  4  0
 17 18  4  0
 17 21  1  0
 18 19  4  0
 19 20  4  0
 23 24  4  0
 24 25  1  0
 25 26  1  0
 26 27  2  0
 26 28  1  0
 28 29  1  0
 29 30  4  0
 30 31  4  0
 31 32  4  0
 32 33  4  0
 33 34  4  0
 34 35  1  0
 24 36  4  0
 36 37  2  0
 36 38  4  0
 38 39  4  0
 39 40  4  0
 40 41  1  0
 40 42  4  0
 42 43  4  0
 34 29  4  0
 43 38  4  0
  2 23  4  0
  2 43  4  0
M  END
$$$$

     RDKit          3D

 31 35  0  0  0  0  0  0  0  0999 V2000
   -7.6410    4.9930    6.8080 C   0  0  0  0  0  0  0  0  0  1  0  0
   -7.7310    4.0530    5.7140 C   0  0  0  0  0  0  0  0  0  2  0  0
   -6.4520    5.6300    6.8680 N   0  0  0  0  0  0  0  0  0  0  0  0
   -6.2260    6.5240    7.8670 N   0  0  0  0  0  0  0  0  0  0  0  0
   -7.1930    6.7500    8.7820 C   0  0  0  0  0  0  0  0  0  0  0  0
   -8.4240    6.1170    8.7580 C   0  0  0  0  0  0  0  0  0  0  0  0
   -9.3950    6.3570    9.7450 N   0  0  0  0  0  0  0  0  0  0  0  0
  -10.5620    5.6840    9.7600 C   0  0  0  0  0  0  0  0  0  0  0  0
  -11.5770    5.6820   10.5960 N   0  0  0  0  0  0  0  0  0  0  0  0
  -12.4690    4.7490   10.1080 N   0  0  0  0  0  0  0  0  0  0  0  0
  -12.0160    4.1880    8.9920 N   0  0  0  0  0  0  0  0  0  0  0  0
  -10.8400    4.7900    8.7610 N   0  0  0  0  0  0  0  0  0  0  0  0
   -9.9950    4.4790    7.6090 C   0  0  0  0  0  0  0  0  0  0  0  0
   -8.6630    5.2070    7.7200 C   0  0  0  0  0  0  0  0  0  0  0  0
  -10.7490    4.8610    6.3730 C   0  0  0  0  0  0  0  0  0  0  0  0
  -11.0350    6.2020    6.1170 C   0  0  0  0  0  0  0  0  0  0  0  0
  -11.7370    6.5580    4.9650 C   0  0  0  0  0  0  0  0  0  0  0  0
  -12.1550    5.5730    4.0710 C   0  0  0  0  0  0  0  0  0  0  0  0
  -11.8700    4.2310    4.3270 C   0  0  0  0  0  0  0  0  0  0  0  0
  -11.1660    3.8760    5.4790 C   0  0  0  0  0  0  0  0  0  0  0  0
  -12.0160    7.8660    4.7150 O   0  0  0  0  0  0  0  0  0  0  0  0
   -6.8990    7.6510    9.7710 O   0  0  0  0  0  0  0  0  0  0  0  0
   -7.0194    2.9218    5.4996 N   0  0  0  0  0  0  0  0  0  0  0  0
   -7.5108    2.2591    4.4350 C   0  0  0  0  0  0  0  0  0  0  0  0
   -6.8967    1.0035    3.8976 C   0  0  0  0  0  0  0  0  0  0  0  0
   -8.6270    2.9140    3.9278 C   0  0  0  0  0  0  0  0  0  0  0  0
   -9.4277    2.4919    2.7562 C   0  0  0  0  0  0  0  0  0  0  0  0
  -10.8899    2.7922    2.6502 C   0  0  0  0  0  0  0  0  0  0  0  0
   -8.8706    1.8642    1.8170 O   0  0  0  0  0  0  0  0  0  0  0  0
   -8.8103    4.0342    4.7346 C   0  0  0  0  0  0  0  0  0  0  0  0
   -9.8183    5.1314    4.5490 C   0  0  0  0  0  0  0  0  0  0  0  0
  1  3  4  0
  1 14  4  0
  1  2  1  0
  3  4  4  0
  4  5  4  0
  5  6  4  0
  5 22  1  0
  6  7  1  0
  6 14  4  0
  7  8  1  0
  8  9  4  0
  8 12  4  0
  9 10  4  0
 10 11  4  0
 11 12  4  0
 12 13  1  0
 13 14  1  0
 13 15  1  6
 15 16  4  0
 15 20  4  0
 16 17  4  0
 17 18  4  0
 17 21  1  0
 18 19  4  0
 19 20  4  0
 23 24  4  0
 24 25  1  0
 24 26  4  0
 26 27  1  0
 27 28  1  0
 27 29  2  0
 26 30  4  0
 30 31  1  0
  2 23  4  0
  2 30  4  0
M  END
$$$$

     RDKit          3D

 31 35  0  0  0  0  0  0  0  0999 V2000
   -7.6410    4.9930    6.8080 C   0  0  0  0  0  0  0  0  0  1  0  0
   -7.7310    4.0530    5.7140 C   0  0  0  0  0  0  0  0  0  2  0  0
   -6.4520    5.6300    6.8680 N   0  0  0  0  0  0  0  0  0  0  0  0
   -6.2260    6.5240    7.8670 N   0  0  0  0  0  0  0  0  0  0  0  0
   -7.1930    6.7500    8.7820 C   0  0  0  0  0  0  0  0  0  0  0  0
   -8.4240    6.1170    8.7580 C   0  0  0  0  0  0  0  0  0  0  0  0
   -9.3950    6.3570    9.7450 N   0  0  0  0  0  0  0  0  0  0  0  0
  -10.5620    5.6840    9.7600 C   0  0  0  0  0  0  0  0  0  0  0  0
  -11.5770    5.6820   10.5960 N   0  0  0  0  0  0  0  0  0  0  0  0
  -12.4690    4.7490   10.1080 N   0  0  0  0  0  0  0  0  0  0  0  0
  -12.0160    4.1880    8.9920 N   0  0  0  0  0  0  0  0  0  0  0  0
  -10.8400    4.7900    8.7610 N   0  0  0  0  0  0  0  0  0  0  0  0
   -9.9950    4.4790    7.6090 C   0  0  0  0  0  0  0  0  0  0  0  0
   -8.6630    5.2070    7.7200 C   0  0  0  0  0  0  0  0  0  0  0  0
  -10.7490    4.8610    6.3730 C   0  0  0  0  0  0  0  0  0  0  0  0
  -11.0350    6.2020    6.1170 C   0  0  0  0  0  0  0  0  0  0  0  0
  -11.7370    6.5580    4.9650 C   0  0  0  0  0  0  0  0  0  0  0  0
  -12.1550    5.5730    4.0710 C   0  0  0  0  0  0  0  0  0  0  0  0
  -11.8700    4.2310    4.3270 C   0  0  0  0  0  0  0  0  0  0  0  0
  -11.1660    3.8760    5.4790 C   0  0  0  0  0  0  0  0  0  0  0  0
  -12.0160    7.8660    4.7150 O   0  0  0  0  0  0  0  0  0  0  0  0
   -6.8990    7.6510    9.7710 O   0  0  0  0  0  0  0  0  0  0  0  0
   -6.9909    2.9469    5.4744 N   0  0  0  0  0  0  0  0  0  0  0  0
   -7.5072    2.2434    4.4484 C   0  0  0  0  0  0  0  0  0  0  0  0
   -6.9017    0.9635    3.9604 C   0  0  0  0  0  0  0  0  0  0  0  0
   -8.6765    2.8491    3.9912 C   0  0  0  0  0  0  0  0  0  0  0  0
   -9.5755    2.3983    2.9023 C   0  0  0  0  0  0  0  0  0  0  0  0
   -9.0679    1.6303    1.7228 C   0  0  0  0  0  0  0  0  0  0  0  0
  -10.8061    2.6605    2.9672 O   0  0  0  0  0  0  0  0  0  0  0  0
   -8.8615    3.9718    4.7921 C   0  0  0  0  0  0  0  0  0  0  0  0
   -9.9811    4.9663    4.6983 C   0  0  0  0  0  0  0  0  0  0  0  0
  1  3  4  0
  1 14  4  0
  1  2  1  0
  3  4  4  0
  4  5  4  0
  5  6  4  0
  5 22  1  0
  6  7  1  0
  6 14  4  0
  7  8  1  0
  8  9  4  0
  8 12  4  0
  9 10  4  0
 10 11  4  0
 11 12  4  0
 12 13  1  0
 13 14  1  0
 13 15  1  6
 15 16  4  0
 15 20  4  0
 16 17  4  0
 17 18  4  0
 17 21  1  0
 18 19  4  0
 19 20  4  0
 23 24  4  0
 24 25  1  0
 24 26  4  0
 26 27  1  0
 27 28  1  0
 27 29  2  0
 26 30  4  0
 30 31  1  0
  2 23  4  0
  2 30  4  0
M  END
$$$$

     RDKit          3D

 32 37  0  0  0  0  0  0  0  0999 V2000
   -7.6410    4.9930    6.8080 C   0  0  0  0  0  0  0  0  0  1  0  0
   -7.7310    4.0530    5.7140 C   0  0  0  0  0  0  0  0  0  2  0  0
   -6.4520    5.6300    6.8680 N   0  0  0  0  0  0  0  0  0  0  0  0
   -6.2260    6.5240    7.8670 N   0  0  0  0  0  0  0  0  0  0  0  0
   -7.1930    6.7500    8.7820 C   0  0  0  0  0  0  0  0  0  0  0  0
   -8.4240    6.1170    8.7580 C   0  0  0  0  0  0  0  0  0  0  0  0
   -9.3950    6.3570    9.7450 N   0  0  0  0  0  0  0  0  0  0  0  0
  -10.5620    5.6840    9.7600 C   0  0  0  0  0  0  0  0  0  0  0  0
  -11.5770    5.6820   10.5960 N   0  0  0  0  0  0  0  0  0  0  0  0
  -12.4690    4.7490   10.1080 N   0  0  0  0  0  0  0  0  0  0  0  0
  -12.0160    4.1880    8.9920 N   0  0  0  0  0  0  0  0  0  0  0  0
  -10.8400    4.7900    8.7610 N   0  0  0  0  0  0  0  0  0  0  0  0
   -9.9950    4.4790    7.6090 C   0  0  0  0  0  0  0  0  0  0  0  0
   -8.6630    5.2070    7.7200 C   0  0  0  0  0  0  0  0  0  0  0  0
  -10.7490    4.8610    6.3730 C   0  0  0  0  0  0  0  0  0  0  0  0
  -11.0350    6.2020    6.1170 C   0  0  0  0  0  0  0  0  0  0  0  0
  -11.7370    6.5580    4.9650 C   0  0  0  0  0  0  0  0  0  0  0  0
  -12.1550    5.5730    4.0710 C   0  0  0  0  0  0  0  0  0  0  0  0
  -11.8700    4.2310    4.3270 C   0  0  0  0  0  0  0  0  0  0  0  0
  -11.1660    3.8760    5.4790 C   0  0  0  0  0  0  0  0  0  0  0  0
  -12.0160    7.8660    4.7150 O   0  0  0  0  0  0  0  0  0  0  0  0
   -6.8990    7.6510    9.7710 O   0  0  0  0  0  0  0  0  0  0  0  0
   -6.8798    2.9961    5.5984 N   0  0  0  0  0  0  0  0  0  0  0  0
   -6.9659    2.0461    4.6691 N   0  0  0  0  0  0  0  0  0  0  0  0
   -7.9653    2.0267    3.7531 C   0  0  0  0  0  0  0  0  0  0  0  0
   -7.9821    0.7170    2.5776 Cl  0  0  0  0  0  0  0  0  0  0  0  0
   -8.9334    3.0475    3.7653 C   0  0  0  0  0  0  0  0  0  0  0  0
   -9.9800    3.0858    2.8233 C   0  0  0  0  0  0  0  0  0  0  0  0
  -10.9067    4.1291    2.8390 C   0  0  0  0  0  0  0  0  0  0  0  0
  -10.7983    5.1490    3.7824 C   0  0  0  0  0  0  0  0  0  0  0  0
   -9.7703    5.1270    4.7264 C   0  0  0  0  0  0  0  0  0  0  0  0
   -8.8376    4.0682    4.7453 C   0  0  0  0  0  0  0  0  0  0  0  0
  1  3  4  0
  1 14  4  0
  1  2  1  0
  3  4  4  0
  4  5  4  0
  5  6  4  0
  5 22  1  0
  6  7  1  0
  6 14  4  0
  7  8  1  0
  8  9  4  0
  8 12  4  0
  9 10  4  0
 10 11  4  0
 11 12  4  0
 12 13  1  0
 13 14  1  0
 13 15  1  6
 15 16  4  0
 15 20  4  0
 16 17  4  0
 17 18  4  0
 17 21  1  0
 18 19  4  0
 19 20  4  0
 23 24  4  0
 24 25  4  0
 25 26  1  0
 25 27  4  0
 27 28  4  0
 28 29  4  0
 29 30  4  0
 30 31  4  0
 31 32  4  0
 32 27  4  0
  2 23  4  0
  2 32  4  0
M  END
$$$$

     RDKit          3D

 38 43  0  0  0  0  0  0  0  0999 V2000
   -7.6410    4.9930    6.8080 C   0  0  0  0  0  0  0  0  0  1  0  0
   -7.7310    4.0530    5.7140 C   0  0  0  0  0  0  0  0  0  2  0  0
   -6.4520    5.6300    6.8680 N   0  0  0  0  0  0  0  0  0  0  0  0
   -6.2260    6.5240    7.8670 N   0  0  0  0  0  0  0  0  0  0  0  0
   -7.1930    6.7500    8.7820 C   0  0  0  0  0  0  0  0  0  0  0  0
   -8.4240    6.1170    8.7580 C   0  0  0  0  0  0  0  0  0  0  0  0
   -9.3950    6.3570    9.7450 N   0  0  0  0  0  0  0  0  0  0  0  0
  -10.5620    5.6840    9.7600 C   0  0  0  0  0  0  0  0  0  0  0  0
  -11.5770    5.6820   10.5960 N   0  0  0  0  0  0  0  0  0  0  0  0
  -12.4690    4.7490   10.1080 N   0  0  0  0  0  0  0  0  0  0  0  0
  -12.0160    4.1880    8.9920 N   0  0  0  0  0  0  0  0  0  0  0  0
  -10.8400    4.7900    8.7610 N   0  0  0  0  0  0  0  0  0  0  0  0
   -9.9950    4.4790    7.6090 C   0  0  0  0  0  0  0  0  0  0  0  0
   -8.6630    5.2070    7.7200 C   0  0  0  0  0  0  0  0  0  0  0  0
  -10.7490    4.8610    6.3730 C   0  0  0  0  0  0  0  0  0  0  0  0
  -11.0350    6.2020    6.1170 C   0  0  0  0  0  0  0  0  0  0  0  0
  -11.7370    6.5580    4.9650 C   0  0  0  0  0  0  0  0  0  0  0  0
  -12.1550    5.5730    4.0710 C   0  0  0  0  0  0  0  0  0  0  0  0
  -11.8700    4.2310    4.3270 C   0  0  0  0  0  0  0  0  0  0  0  0
  -11.1660    3.8760    5.4790 C   0  0  0  0  0  0  0  0  0  0  0  0
  -12.0160    7.8660    4.7150 O   0  0  0  0  0  0  0  0  0  0  0  0
   -6.8990    7.6510    9.7710 O   0  0  0  0  0  0  0  0  0  0  0  0
   -6.9426    2.9017    5.5748 C   0  0  0  0  0  0  0  0  0  0  0  0
   -7.3782    2.0510    4.1951 S   0  0  0  0  0  0  0  0  0  0  0  0
   -8.6084    3.1142    3.7848 C   0  0  0  0  0  0  0  0  0  0  0  0
   -9.5211    2.9364    2.4338 S   0  0  0  0  0  0  0  0  0  0  0  0
   -8.7136    4.1320    4.6844 N   0  0  0  0  0  0  0  0  0  0  0  0
   -9.6399    5.2720    4.5548 C   0  0  0  0  0  0  0  0  0  0  0  0
   -8.8820    6.5380    4.2884 C   0  0  0  0  0  0  0  0  0  0  0  0
   -8.9985    7.5060    5.0872 O   0  0  0  0  0  0  0  0  0  0  0  0
   -8.0304    6.6347    3.1347 N   0  0  0  0  0  0  0  0  0  0  0  0
   -7.1428    7.7693    2.8460 C   0  0  0  0  0  0  0  0  0  0  0  0
   -6.0840    7.9104    3.9491 C   0  0  0  0  0  0  0  0  0  0  0  0
   -7.9494    9.0737    2.6315 C   0  0  0  0  0  0  0  0  0  0  0  0
   -7.1165   10.1736    1.9595 C   0  0  0  0  0  0  0  0  0  0  0  0
   -7.8037   10.3986    0.6454 C   0  0  0  0  0  0  0  0  0  0  0  0
   -9.1830    9.8361    0.8845 C   0  0  0  0  0  0  0  0  0  0  0  0
   -9.0800    8.8010    1.8286 O   0  0  0  0  0  0  0  0  0  0  0  0
  1  3  4  0
  1 14  4  0
  1  2  1  0
  3  4  4  0
  4  5  4  0
  5  6  4  0
  5 22  1  0
  6  7  1  0
  6 14  4  0
  7  8  1  0
  8  9  4  0
  8 12  4  0
  9 10  4  0
 10 11  4  0
 11 12  4  0
 12 13  1  0
 13 14  1  0
 13 15  1  6
 15 16  4  0
 15 20  4  0
 16 17  4  0
 17 18  4  0
 17 21  1  0
 18 19  4  0
 19 20  4  0
 23 24  4  0
 24 25  4  0
 25 26  2  0
 25 27  4  0
 27 28  1  0
 28 29  1  0
 29 30  2  0
 29 31  1  0
 31 32  1  0
 32 33  1  0
 32 34  1  0
 34 35  1  0
 35 36  1  0
 36 37  1  0
 37 38  1  0
 38 34  1  0
  2 23  4  0
  2 27  4  0
M  END
$$$$

     RDKit          3D

 38 43  0  0  0  0  0  0  0  0999 V2000
   -7.6410    4.9930    6.8080 C   0  0  0  0  0  0  0  0  0  1  0  0
   -7.7310    4.0530    5.7140 C   0  0  0  0  0  0  0  0  0  2  0  0
   -6.4520    5.6300    6.8680 N   0  0  0  0  0  0  0  0  0  0  0  0
   -6.2260    6.5240    7.8670 N   0  0  0  0  0  0  0  0  0  0  0  0
   -7.1930    6.7500    8.7820 C   0  0  0  0  0  0  0  0  0  0  0  0
   -8.4240    6.1170    8.7580 C   0  0  0  0  0  0  0  0  0  0  0  0
   -9.3950    6.3570    9.7450 N   0  0  0  0  0  0  0  0  0  0  0  0
  -10.5620    5.6840    9.7600 C   0  0  0  0  0  0  0  0  0  0  0  0
  -11.5770    5.6820   10.5960 N   0  0  0  0  0  0  0  0  0  0  0  0
  -12.4690    4.7490   10.1080 N   0  0  0  0  0  0  0  0  0  0  0  0
  -12.0160    4.1880    8.9920 N   0  0  0  0  0  0  0  0  0  0  0  0
  -10.8400    4.7900    8.7610 N   0  0  0  0  0  0  0  0  0  0  0  0
   -9.9950    4.4790    7.6090 C   0  0  0  0  0  0  0  0  0  0  0  0
   -8.6630    5.2070    7.7200 C   0  0  0  0  0  0  0  0  0  0  0  0
  -10.7490    4.8610    6.3730 C   0  0  0  0  0  0  0  0  0  0  0  0
  -11.0350    6.2020    6.1170 C   0  0  0  0  0  0  0  0  0  0  0  0
  -11.7370    6.5580    4.9650 C   0  0  0  0  0  0  0  0  0  0  0  0
  -12.1550    5.5730    4.0710 C   0  0  0  0  0  0  0  0  0  0  0  0
  -11.8700    4.2310    4.3270 C   0  0  0  0  0  0  0  0  0  0  0  0
  -11.1660    3.8760    5.4790 C   0  0  0  0  0  0  0  0  0  0  0  0
  -12.0160    7.8660    4.7150 O   0  0  0  0  0  0  0  0  0  0  0  0
   -6.8990    7.6510    9.7710 O   0  0  0  0  0  0  0  0  0  0  0  0
   -6.9589    2.8876    5.5905 C   0  0  0  0  0  0  0  0  0  0  0  0
   -7.4071    2.0214    4.2245 S   0  0  0  0  0  0  0  0  0  0  0  0
   -8.6260    3.0933    3.8036 C   0  0  0  0  0  0  0  0  0  0  0  0
   -9.5290    2.9289    2.4453 S   0  0  0  0  0  0  0  0  0  0  0  0
   -8.7212    4.1211    4.6904 N   0  0  0  0  0  0  0  0  0  0  0  0
   -9.6065    5.2828    4.5067 C   0  0  0  0  0  0  0  0  0  0  0  0
   -8.9207    6.3229    3.6728 C   0  0  0  0  0  0  0  0  0  0  0  0
   -7.9574    6.9653    4.1681 O   0  0  0  0  0  0  0  0  0  0  0  0
   -9.3545    6.5708    2.3242 N   0  0  0  0  0  0  0  0  0  0  0  0
   -8.6393    7.4166    1.3596 C   0  0  0  0  0  0  0  0  0  0  0  0
   -7.2220    6.8777    1.1180 C   0  0  0  0  0  0  0  0  0  0  0  0
   -8.6392    8.8972    1.8063 C   0  0  0  0  0  0  0  0  0  0  0  0
   -8.1205    9.8391    0.7209 C   0  0  0  0  0  0  0  0  0  0  0  0
   -9.0016   11.0550    0.8414 C   0  0  0  0  0  0  0  0  0  0  0  0
   -9.9956   10.6874    1.9287 C   0  0  0  0  0  0  0  0  0  0  0  0
   -9.9492    9.2978    2.1302 O   0  0  0  0  0  0  0  0  0  0  0  0
  1  3  4  0
  1 14  4  0
  1  2  1  0
  3  4  4  0
  4  5  4  0
  5  6  4  0
  5 22  1  0
  6  7  1  0
  6 14  4  0
  7  8  1  0
  8  9  4  0
  8 12  4  0
  9 10  4  0
 10 11  4  0
 11 12  4  0
 12 13  1  0
 13 14  1  0
 13 15  1  6
 15 16  4  0
 15 20  4  0
 16 17  4  0
 17 18  4  0
 17 21  1  0
 18 19  4  0
 19 20  4  0
 23 24  4  0
 24 25  4  0
 25 26  2  0
 25 27  4  0
 27 28  1  0
 28 29  1  0
 29 30  2  0
 29 31  1  0
 31 32  1  0
 32 33  1  0
 32 34  1  0
 34 35  1  0
 35 36  1  0
 36 37  1  0
 37 38  1  0
 38 34  1  0
  2 23  4  0
  2 27  4  0
M  END
$$$$

     RDKit          3D

 39 45  0  0  0  0  0  0  0  0999 V2000
   -7.6410    4.9930    6.8080 C   0  0  0  0  0  0  0  0  0  1  0  0
   -7.7310    4.0530    5.7140 C   0  0  0  0  0  0  0  0  0  2  0  0
   -6.4520    5.6300    6.8680 N   0  0  0  0  0  0  0  0  0  0  0  0
   -6.2260    6.5240    7.8670 N   0  0  0  0  0  0  0  0  0  0  0  0
   -7.1930    6.7500    8.7820 C   0  0  0  0  0  0  0  0  0  0  0  0
   -8.4240    6.1170    8.7580 C   0  0  0  0  0  0  0  0  0  0  0  0
   -9.3950    6.3570    9.7450 N   0  0  0  0  0  0  0  0  0  0  0  0
  -10.5620    5.6840    9.7600 C   0  0  0  0  0  0  0  0  0  0  0  0
  -11.5770    5.6820   10.5960 N   0  0  0  0  0  0  0  0  0  0  0  0
  -12.4690    4.7490   10.1080 N   0  0  0  0  0  0  0  0  0  0  0  0
  -12.0160    4.1880    8.9920 N   0  0  0  0  0  0  0  0  0  0  0  0
  -10.8400    4.7900    8.7610 N   0  0  0  0  0  0  0  0  0  0  0  0
   -9.9950    4.4790    7.6090 C   0  0  0  0  0  0  0  0  0  0  0  0
   -8.6630    5.2070    7.7200 C   0  0  0  0  0  0  0  0  0  0  0  0
  -10.7490    4.8610    6.3730 C   0  0  0  0  0  0  0  0  0  0  0  0
  -11.0350    6.2020    6.1170 C   0  0  0  0  0  0  0  0  0  0  0  0
  -11.7370    6.5580    4.9650 C   0  0  0  0  0  0  0  0  0  0  0  0
  -12.1550    5.5730    4.0710 C   0  0  0  0  0  0  0  0  0  0  0  0
  -11.8700    4.2310    4.3270 C   0  0  0  0  0  0  0  0  0  0  0  0
  -11.1660    3.8760    5.4790 C   0  0  0  0  0  0  0  0  0  0  0  0
  -12.0160    7.8660    4.7150 O   0  0  0  0  0  0  0  0  0  0  0  0
   -6.8990    7.6510    9.7710 O   0  0  0  0  0  0  0  0  0  0  0  0
   -6.8784    2.9986    5.5981 N   0  0  0  0  0  0  0  0  0  0  0  0
   -6.9617    2.0496    4.6683 N   0  0  0  0  0  0  0  0  0  0  0  0
   -7.9651    2.0193    3.7530 C   0  0  0  0  0  0  0  0  0  0  0  0
   -7.9639    0.9921    2.7461 N   0  0  0  0  0  0  0  0  0  0  0  0
   -7.4769   -0.3412    2.9787 C   0  0  0  0  0  0  0  0  0  0  0  0
   -6.9831   -1.0947    1.9017 C   0  0  0  0  0  0  0  0  0  0  0  0
   -6.5229   -2.3997    2.1022 C   0  0  0  0  0  0  0  0  0  0  0  0
   -6.5631   -2.9691    3.3784 C   0  0  0  0  0  0  0  0  0  0  0  0
   -5.9365   -4.7526    3.6500 Br  0  0  0  0  0  0  0  0  0  0  0  0
   -7.0708   -2.2341    4.4538 C   0  0  0  0  0  0  0  0  0  0  0  0
   -7.5313   -0.9286    4.2568 C   0  0  0  0  0  0  0  0  0  0  0  0
   -8.9411    3.0377    3.7729 C   0  0  0  0  0  0  0  0  0  0  0  0
  -10.0170    3.0553    2.8614 C   0  0  0  0  0  0  0  0  0  0  0  0
  -10.9480    4.0944    2.8852 C   0  0  0  0  0  0  0  0  0  0  0  0
  -10.8222    5.1275    3.8112 C   0  0  0  0  0  0  0  0  0  0  0  0
   -9.7777    5.1180    4.7362 C   0  0  0  0  0  0  0  0  0  0  0  0
   -8.8410    4.0626    4.7494 C   0  0  0  0  0  0  0  0  0  0  0  0
  1  3  4  0
  1 14  4  0
  1  2  1  0
  3  4  4  0
  4  5  4  0
  5  6  4  0
  5 22  1  0
  6  7  1  0
  6 14  4  0
  7  8  1  0
  8  9  4  0
  8 12  4  0
  9 10  4  0
 10 11  4  0
 11 12  4  0
 12 13  1  0
 13 14  1  0
 13 15  1  6
 15 16  4  0
 15 20  4  0
 16 17  4  0
 17 18  4  0
 17 21  1  0
 18 19  4  0
 19 20  4  0
 23 24  4  0
 24 25  4  0
 25 26  1  0
 26 27  1  0
 27 28  4  0
 28 29  4  0
 29 30  4  0
 30 31  1  0
 30 32  4  0
 32 33  4  0
 25 34  4  0
 34 35  4  0
 35 36  4  0
 36 37  4  0
 37 38  4  0
 38 39  4  0
 33 27  4  0
 39 34  4  0
  2 23  4  0
  2 39  4  0
M  END
$$$$

     RDKit          3D

 39 45  0  0  0  0  0  0  0  0999 V2000
   -7.6410    4.9930    6.8080 C   0  0  0  0  0  0  0  0  0  1  0  0
   -7.7310    4.0530    5.7140 C   0  0  0  0  0  0  0  0  0  2  0  0
   -6.4520    5.6300    6.8680 N   0  0  0  0  0  0  0  0  0  0  0  0
   -6.2260    6.5240    7.8670 N   0  0  0  0  0  0  0  0  0  0  0  0
   -7.1930    6.7500    8.7820 C   0  0  0  0  0  0  0  0  0  0  0  0
   -8.4240    6.1170    8.7580 C   0  0  0  0  0  0  0  0  0  0  0  0
   -9.3950    6.3570    9.7450 N   0  0  0  0  0  0  0  0  0  0  0  0
  -10.5620    5.6840    9.7600 C   0  0  0  0  0  0  0  0  0  0  0  0
  -11.5770    5.6820   10.5960 N   0  0  0  0  0  0  0  0  0  0  0  0
  -12.4690    4.7490   10.1080 N   0  0  0  0  0  0  0  0  0  0  0  0
  -12.0160    4.1880    8.9920 N   0  0  0  0  0  0  0  0  0  0  0  0
  -10.8400    4.7900    8.7610 N   0  0  0  0  0  0  0  0  0  0  0  0
   -9.9950    4.4790    7.6090 C   0  0  0  0  0  0  0  0  0  0  0  0
   -8.6630    5.2070    7.7200 C   0  0  0  0  0  0  0  0  0  0  0  0
  -10.7490    4.8610    6.3730 C   0  0  0  0  0  0  0  0  0  0  0  0
  -11.0350    6.2020    6.1170 C   0  0  0  0  0  0  0  0  0  0  0  0
  -11.7370    6.5580    4.9650 C   0  0  0  0  0  0  0  0  0  0  0  0
  -12.1550    5.5730    4.0710 C   0  0  0  0  0  0  0  0  0  0  0  0
  -11.8700    4.2310    4.3270 C   0  0  0  0  0  0  0  0  0  0  0  0
  -11.1660    3.8760    5.4790 C   0  0  0  0  0  0  0  0  0  0  0  0
  -12.0160    7.8660    4.7150 O   0  0  0  0  0  0  0  0  0  0  0  0
   -6.8990    7.6510    9.7710 O   0  0  0  0  0  0  0  0  0  0  0  0
   -6.8778    2.9992    5.5974 N   0  0  0  0  0  0  0  0  0  0  0  0
   -6.9641    2.0473    4.6712 N   0  0  0  0  0  0  0  0  0  0  0  0
   -7.9616    2.0228    3.7493 C   0  0  0  0  0  0  0  0  0  0  0  0
   -8.0305    0.9278    2.8193 N   0  0  0  0  0  0  0  0  0  0  0  0
   -6.8687    0.2542    2.3041 C   0  0  0  0  0  0  0  0  0  0  0  0
   -6.9711   -1.0842    1.8922 C   0  0  0  0  0  0  0  0  0  0  0  0
   -5.8590   -1.7518    1.3702 C   0  0  0  0  0  0  0  0  0  0  0  0
   -4.6370   -1.0850    1.2428 C   0  0  0  0  0  0  0  0  0  0  0  0
   -3.1195   -1.9976    0.5272 Br  0  0  0  0  0  0  0  0  0  0  0  0
   -4.5294    0.2536    1.6319 C   0  0  0  0  0  0  0  0  0  0  0  0
   -5.6396    0.9240    2.1548 C   0  0  0  0  0  0  0  0  0  0  0  0
   -8.9295    3.0490    3.7601 C   0  0  0  0  0  0  0  0  0  0  0  0
   -9.9569    3.1118    2.7962 C   0  0  0  0  0  0  0  0  0  0  0  0
  -10.8797    4.1583    2.8120 C   0  0  0  0  0  0  0  0  0  0  0  0
  -10.7836    5.1635    3.7713 C   0  0  0  0  0  0  0  0  0  0  0  0
   -9.7666    5.1285    4.7258 C   0  0  0  0  0  0  0  0  0  0  0  0
   -8.8365    4.0672    4.7445 C   0  0  0  0  0  0  0  0  0  0  0  0
  1  3  4  0
  1 14  4  0
  1  2  1  0
  3  4  4  0
  4  5  4  0
  5  6  4  0
  5 22  1  0
  6  7  1  0
  6 14  4  0
  7  8  1  0
  8  9  4  0
  8 12  4  0
  9 10  4  0
 10 11  4  0
 11 12  4  0
 12 13  1  0
 13 14  1  0
 13 15  1  6
 15 16  4  0
 15 20  4  0
 16 17  4  0
 17 18  4  0
 17 21  1  0
 18 19  4  0
 19 20  4  0
 23 24  4  0
 24 25  4  0
 25 26  1  0
 26 27  1  0
 27 28  4  0
 28 29  4  0
 29 30  4  0
 30 31  1  0
 30 32  4  0
 32 33  4  0
 25 34  4  0
 34 35  4  0
 35 36  4  0
 36 37  4  0
 37 38  4  0
 38 39  4  0
 33 27  4  0
 39 34  4  0
  2 23  4  0
  2 39  4  0
M  END
$$$$

     RDKit          3D

 39 45  0  0  0  0  0  0  0  0999 V2000
   -7.6410    4.9930    6.8080 C   0  0  0  0  0  0  0  0  0  1  0  0
   -7.7310    4.0530    5.7140 C   0  0  0  0  0  0  0  0  0  2  0  0
   -6.4520    5.6300    6.8680 N   0  0  0  0  0  0  0  0  0  0  0  0
   -6.2260    6.5240    7.8670 N   0  0  0  0  0  0  0  0  0  0  0  0
   -7.1930    6.7500    8.7820 C   0  0  0  0  0  0  0  0  0  0  0  0
   -8.4240    6.1170    8.7580 C   0  0  0  0  0  0  0  0  0  0  0  0
   -9.3950    6.3570    9.7450 N   0  0  0  0  0  0  0  0  0  0  0  0
  -10.5620    5.6840    9.7600 C   0  0  0  0  0  0  0  0  0  0  0  0
  -11.5770    5.6820   10.5960 N   0  0  0  0  0  0  0  0  0  0  0  0
  -12.4690    4.7490   10.1080 N   0  0  0  0  0  0  0  0  0  0  0  0
  -12.0160    4.1880    8.9920 N   0  0  0  0  0  0  0  0  0  0  0  0
  -10.8400    4.7900    8.7610 N   0  0  0  0  0  0  0  0  0  0  0  0
   -9.9950    4.4790    7.6090 C   0  0  0  0  0  0  0  0  0  0  0  0
   -8.6630    5.2070    7.7200 C   0  0  0  0  0  0  0  0  0  0  0  0
  -10.7490    4.8610    6.3730 C   0  0  0  0  0  0  0  0  0  0  0  0
  -11.0350    6.2020    6.1170 C   0  0  0  0  0  0  0  0  0  0  0  0
  -11.7370    6.5580    4.9650 C   0  0  0  0  0  0  0  0  0  0  0  0
  -12.1550    5.5730    4.0710 C   0  0  0  0  0  0  0  0  0  0  0  0
  -11.8700    4.2310    4.3270 C   0  0  0  0  0  0  0  0  0  0  0  0
  -11.1660    3.8760    5.4790 C   0  0  0  0  0  0  0  0  0  0  0  0
  -12.0160    7.8660    4.7150 O   0  0  0  0  0  0  0  0  0  0  0  0
   -6.8990    7.6510    9.7710 O   0  0  0  0  0  0  0  0  0  0  0  0
   -6.8693    3.0069    5.5872 N   0  0  0  0  0  0  0  0  0  0  0  0
   -6.9590    2.0514    4.6643 N   0  0  0  0  0  0  0  0  0  0  0  0
   -7.9757    2.0111    3.7674 C   0  0  0  0  0  0  0  0  0  0  0  0
   -8.0172    0.9311    2.8241 N   0  0  0  0  0  0  0  0  0  0  0  0
   -9.0786   -0.0406    2.7672 C   0  0  0  0  0  0  0  0  0  0  0  0
  -10.0671   -0.1155    3.7683 C   0  0  0  0  0  0  0  0  0  0  0  0
  -11.0843   -1.0710    3.6859 C   0  0  0  0  0  0  0  0  0  0  0  0
  -11.1230   -1.9643    2.6114 C   0  0  0  0  0  0  0  0  0  0  0  0
  -12.5138   -3.2686    2.5018 Br  0  0  0  0  0  0  0  0  0  0  0  0
  -10.1402   -1.9040    1.6192 C   0  0  0  0  0  0  0  0  0  0  0  0
   -9.1217   -0.9495    1.6981 C   0  0  0  0  0  0  0  0  0  0  0  0
   -8.9347    3.0450    3.7667 C   0  0  0  0  0  0  0  0  0  0  0  0
   -9.9536    3.1102    2.7954 C   0  0  0  0  0  0  0  0  0  0  0  0
  -10.8765    4.1563    2.8073 C   0  0  0  0  0  0  0  0  0  0  0  0
  -10.7854    5.1601    3.7692 C   0  0  0  0  0  0  0  0  0  0  0  0
   -9.7717    5.1248    4.7279 C   0  0  0  0  0  0  0  0  0  0  0  0
   -8.8412    4.0640    4.7487 C   0  0  0  0  0  0  0  0  0  0  0  0
  1  3  4  0
  1 14  4  0
  1  2  1  0
  3  4  4  0
  4  5  4  0
  5  6  4  0
  5 22  1  0
  6  7  1  0
  6 14  4  0
  7  8  1  0
  8  9  4  0
  8 12  4  0
  9 10  4  0
 10 11  4  0
 11 12  4  0
 12 13  1  0
 13 14  1  0
 13 15  1  6
 15 16  4  0
 15 20  4  0
 16 17  4  0
 17 18  4  0
 17 21  1  0
 18 19  4  0
 19 20  4  0
 23 24  4  0
 24 25  4  0
 25 26  1  0
 26 27  1  0
 27 28  4  0
 28 29  4  0
 29 30  4  0
 30 31  1  0
 30 32  4  0
 32 33  4  0
 25 34  4  0
 34 35  4  0
 35 36  4  0
 36 37  4  0
 37 38  4  0
 38 39  4  0
 33 27  4  0
 39 34  4  0
  2 23  4  0
  2 39  4  0
M  END
$$$$

     RDKit          3D

 42 47  0  0  0  0  0  0  0  0999 V2000
   -7.6410    4.9930    6.8080 C   0  0  0  0  0  0  0  0  0  1  0  0
   -7.7310    4.0530    5.7140 C   0  0  0  0  0  0  0  0  0  2  0  0
   -6.4520    5.6300    6.8680 N   0  0  0  0  0  0  0  0  0  0  0  0
   -6.2260    6.5240    7.8670 N   0  0  0  0  0  0  0  0  0  0  0  0
   -7.1930    6.7500    8.7820 C   0  0  0  0  0  0  0  0  0  0  0  0
   -8.4240    6.1170    8.7580 C   0  0  0  0  0  0  0  0  0  0  0  0
   -9.3950    6.3570    9.7450 N   0  0  0  0  0  0  0  0  0  0  0  0
  -10.5620    5.6840    9.7600 C   0  0  0  0  0  0  0  0  0  0  0  0
  -11.5770    5.6820   10.5960 N   0  0  0  0  0  0  0  0  0  0  0  0
  -12.4690    4.7490   10.1080 N   0  0  0  0  0  0  0  0  0  0  0  0
  -12.0160    4.1880    8.9920 N   0  0  0  0  0  0  0  0  0  0  0  0
  -10.8400    4.7900    8.7610 N   0  0  0  0  0  0  0  0  0  0  0  0
   -9.9950    4.4790    7.6090 C   0  0  0  0  0  0  0  0  0  0  0  0
   -8.6630    5.2070    7.7200 C   0  0  0  0  0  0  0  0  0  0  0  0
  -10.7490    4.8610    6.3730 C   0  0  0  0  0  0  0  0  0  0  0  0
  -11.0350    6.2020    6.1170 C   0  0  0  0  0  0  0  0  0  0  0  0
  -11.7370    6.5580    4.9650 C   0  0  0  0  0  0  0  0  0  0  0  0
  -12.1550    5.5730    4.0710 C   0  0  0  0  0  0  0  0  0  0  0  0
  -11.8700    4.2310    4.3270 C   0  0  0  0  0  0  0  0  0  0  0  0
  -11.1660    3.8760    5.4790 C   0  0  0  0  0  0  0  0  0  0  0  0
  -12.0160    7.8660    4.7150 O   0  0  0  0  0  0  0  0  0  0  0  0
   -6.8990    7.6510    9.7710 O   0  0  0  0  0  0  0  0  0  0  0  0
   -6.7867    3.2072    5.2556 N   0  0  0  0  0  0  0  0  0  0  0  0
   -7.2868    2.4345    4.2995 N   0  0  0  0  0  0  0  0  0  0  0  0
   -8.5834    2.7691    4.1622 C   0  0  0  0  0  0  0  0  0  0  0  0
   -9.6855    2.0208    2.9600 S   0  0  0  0  0  0  0  0  0  0  0  0
  -10.4410    0.8429    4.1350 C   0  0  0  0  0  0  0  0  0  0  0  0
   -9.6305   -0.4143    4.2149 C   0  0  0  0  0  0  0  0  0  0  0  0
  -10.0760   -1.4702    3.6897 O   0  0  0  0  0  0  0  0  0  0  0  0
   -8.3902   -0.4289    4.9374 N   0  0  0  0  0  0  0  0  0  0  0  0
   -7.3622   -1.4183    4.7573 C   0  0  0  0  0  0  0  0  0  0  0  0
   -6.4917   -1.7015    5.8172 C   0  0  0  0  0  0  0  0  0  0  0  0
   -5.4742   -2.6434    5.6639 C   0  0  0  0  0  0  0  0  0  0  0  0
   -5.3028   -3.3073    4.4467 C   0  0  0  0  0  0  0  0  0  0  0  0
   -4.2974   -4.2125    4.3366 F   0  0  0  0  0  0  0  0  0  0  0  0
   -6.1536   -3.0233    3.3562 C   0  0  0  0  0  0  0  0  0  0  0  0
   -5.9916   -3.6889    2.0863 N   0  0  0  0  0  0  0  0  0  0  0  0
   -5.1499   -4.5981    1.9406 O   0  0  0  0  0  0  0  0  0  0  0  0
   -6.7997   -3.3628    1.0202 O   0  0  0  0  0  0  0  0  0  0  0  0
   -7.1726   -2.0657    3.5221 C   0  0  0  0  0  0  0  0  0  0  0  0
   -8.9222    3.7538    5.0108 N   0  0  0  0  0  0  0  0  0  0  0  0
  -10.1371    4.4564    5.0485 N   0  0  0  0  0  0  0  0  0  0  0  0
  1  3  4  0
  1 14  4  0
  1  2  1  0
  3  4  4  0
  4  5  4  0
  5  6  4  0
  5 22  1  0
  6  7  1  0
  6 14  4  0
  7  8  1  0
  8  9  4  0
  8 12  4  0
  9 10  4  0
 10 11  4  0
 11 12  4  0
 12 13  1  0
 13 14  1  0
 13 15  1  6
 15 16  4  0
 15 20  4  0
 16 17  4  0
 17 18  4  0
 17 21  1  0
 18 19  4  0
 19 20  4  0
 23 24  4  0
 24 25  4  0
 25 26  1  0
 26 27  1  0
 27 28  1  0
 28 29  2  0
 28 30  1  0
 30 31  1  0
 31 32  4  0
 32 33  4  0
 33 34  4  0
 34 35  1  0
 34 36  4  0
 36 37  1  0
 37 38  2  0
 37 39  1  0
 36 40  4  0
 25 41  4  0
 41 42  1  0
 40 31  4  0
  2 23  4  0
  2 41  4  0
M  CHG  2  37   1  39  -1
M  END
$$$$

     RDKit          3D

 42 47  0  0  0  0  0  0  0  0999 V2000
   -7.6410    4.9930    6.8080 C   0  0  0  0  0  0  0  0  0  1  0  0
   -7.7310    4.0530    5.7140 C   0  0  0  0  0  0  0  0  0  2  0  0
   -6.4520    5.6300    6.8680 N   0  0  0  0  0  0  0  0  0  0  0  0
   -6.2260    6.5240    7.8670 N   0  0  0  0  0  0  0  0  0  0  0  0
   -7.1930    6.7500    8.7820 C   0  0  0  0  0  0  0  0  0  0  0  0
   -8.4240    6.1170    8.7580 C   0  0  0  0  0  0  0  0  0  0  0  0
   -9.3950    6.3570    9.7450 N   0  0  0  0  0  0  0  0  0  0  0  0
  -10.5620    5.6840    9.7600 C   0  0  0  0  0  0  0  0  0  0  0  0
  -11.5770    5.6820   10.5960 N   0  0  0  0  0  0  0  0  0  0  0  0
  -12.4690    4.7490   10.1080 N   0  0  0  0  0  0  0  0  0  0  0  0
  -12.0160    4.1880    8.9920 N   0  0  0  0  0  0  0  0  0  0  0  0
  -10.8400    4.7900    8.7610 N   0  0  0  0  0  0  0  0  0  0  0  0
   -9.9950    4.4790    7.6090 C   0  0  0  0  0  0  0  0  0  0  0  0
   -8.6630    5.2070    7.7200 C   0  0  0  0  0  0  0  0  0  0  0  0
  -10.7490    4.8610    6.3730 C   0  0  0  0  0  0  0  0  0  0  0  0
  -11.0350    6.2020    6.1170 C   0  0  0  0  0  0  0  0  0  0  0  0
  -11.7370    6.5580    4.9650 C   0  0  0  0  0  0  0  0  0  0  0  0
  -12.1550    5.5730    4.0710 C   0  0  0  0  0  0  0  0  0  0  0  0
  -11.8700    4.2310    4.3270 C   0  0  0  0  0  0  0  0  0  0  0  0
  -11.1660    3.8760    5.4790 C   0  0  0  0  0  0  0  0  0  0  0  0
  -12.0160    7.8660    4.7150 O   0  0  0  0  0  0  0  0  0  0  0  0
   -6.8990    7.6510    9.7710 O   0  0  0  0  0  0  0  0  0  0  0  0
   -6.8089    3.1615    5.2976 N   0  0  0  0  0  0  0  0  0  0  0  0
   -7.2990    2.4261    4.3066 N   0  0  0  0  0  0  0  0  0  0  0  0
   -8.5640    2.8376    4.1008 C   0  0  0  0  0  0  0  0  0  0  0  0
   -9.6371    2.1728    2.8234 S   0  0  0  0  0  0  0  0  0  0  0  0
   -9.1675    3.4074    1.5636 C   0  0  0  0  0  0  0  0  0  0  0  0
   -7.8934    3.0006    0.8890 C   0  0  0  0  0  0  0  0  0  0  0  0
   -6.7918    3.2435    1.4504 O   0  0  0  0  0  0  0  0  0  0  0  0
   -7.9361    2.3088   -0.3687 N   0  0  0  0  0  0  0  0  0  0  0  0
   -6.7745    2.0064   -1.1612 C   0  0  0  0  0  0  0  0  0  0  0  0
   -6.7305    0.8080   -1.8855 C   0  0  0  0  0  0  0  0  0  0  0  0
   -5.6259    0.5036   -2.6802 C   0  0  0  0  0  0  0  0  0  0  0  0
   -4.5531    1.3929   -2.7699 C   0  0  0  0  0  0  0  0  0  0  0  0
   -3.5022    1.0614   -3.5607 F   0  0  0  0  0  0  0  0  0  0  0  0
   -4.5815    2.6141   -2.0636 C   0  0  0  0  0  0  0  0  0  0  0  0
   -3.4876    3.5499   -2.1502 N   0  0  0  0  0  0  0  0  0  0  0  0
   -3.5766    4.6792   -1.6253 O   0  0  0  0  0  0  0  0  0  0  0  0
   -2.2929    3.1876   -2.7321 O   0  0  0  0  0  0  0  0  0  0  0  0
   -5.7067    2.9144   -1.2708 C   0  0  0  0  0  0  0  0  0  0  0  0
   -8.8977    3.8209    4.9530 N   0  0  0  0  0  0  0  0  0  0  0  0
  -10.0726    4.5910    4.9396 N   0  0  0  0  0  0  0  0  0  0  0  0
  1  3  4  0
  1 14  4  0
  1  2  1  0
  3  4  4  0
  4  5  4  0
  5  6  4  0
  5 22  1  0
  6  7  1  0
  6 14  4  0
  7  8  1  0
  8  9  4  0
  8 12  4  0
  9 10  4  0
 10 11  4  0
 11 12  4  0
 12 13  1  0
 13 14  1  0
 13 15  1  6
 15 16  4  0
 15 20  4  0
 16 17  4  0
 17 18  4  0
 17 21  1  0
 18 19  4  0
 19 20  4  0
 23 24  4  0
 24 25  4  0
 25 26  1  0
 26 27  1  0
 27 28  1  0
 28 29  2  0
 28 30  1  0
 30 31  1  0
 31 32  4  0
 32 33  4  0
 33 34  4  0
 34 35  1  0
 34 36  4  0
 36 37  1  0
 37 38  2  0
 37 39  1  0
 36 40  4  0
 25 41  4  0
 41 42  1  0
 40 31  4  0
  2 23  4  0
  2 41  4  0
M  CHG  2  37   1  39  -1
M  END
$$$$

     RDKit          3D

 42 47  0  0  0  0  0  0  0  0999 V2000
   -7.6410    4.9930    6.8080 C   0  0  0  0  0  0  0  0  0  1  0  0
   -7.7310    4.0530    5.7140 C   0  0  0  0  0  0  0  0  0  2  0  0
   -6.4520    5.6300    6.8680 N   0  0  0  0  0  0  0  0  0  0  0  0
   -6.2260    6.5240    7.8670 N   0  0  0  0  0  0  0  0  0  0  0  0
   -7.1930    6.7500    8.7820 C   0  0  0  0  0  0  0  0  0  0  0  0
   -8.4240    6.1170    8.7580 C   0  0  0  0  0  0  0  0  0  0  0  0
   -9.3950    6.3570    9.7450 N   0  0  0  0  0  0  0  0  0  0  0  0
  -10.5620    5.6840    9.7600 C   0  0  0  0  0  0  0  0  0  0  0  0
  -11.5770    5.6820   10.5960 N   0  0  0  0  0  0  0  0  0  0  0  0
  -12.4690    4.7490   10.1080 N   0  0  0  0  0  0  0  0  0  0  0  0
  -12.0160    4.1880    8.9920 N   0  0  0  0  0  0  0  0  0  0  0  0
  -10.8400    4.7900    8.7610 N   0  0  0  0  0  0  0  0  0  0  0  0
   -9.9950    4.4790    7.6090 C   0  0  0  0  0  0  0  0  0  0  0  0
   -8.6630    5.2070    7.7200 C   0  0  0  0  0  0  0  0  0  0  0  0
  -10.7490    4.8610    6.3730 C   0  0  0  0  0  0  0  0  0  0  0  0
  -11.0350    6.2020    6.1170 C   0  0  0  0  0  0  0  0  0  0  0  0
  -11.7370    6.5580    4.9650 C   0  0  0  0  0  0  0  0  0  0  0  0
  -12.1550    5.5730    4.0710 C   0  0  0  0  0  0  0  0  0  0  0  0
  -11.8700    4.2310    4.3270 C   0  0  0  0  0  0  0  0  0  0  0  0
  -11.1660    3.8760    5.4790 C   0  0  0  0  0  0  0  0  0  0  0  0
  -12.0160    7.8660    4.7150 O   0  0  0  0  0  0  0  0  0  0  0  0
   -6.8990    7.6510    9.7710 O   0  0  0  0  0  0  0  0  0  0  0  0
   -6.7933    3.1922    5.2683 N   0  0  0  0  0  0  0  0  0  0  0  0
   -7.2854    2.4463    4.2871 N   0  0  0  0  0  0  0  0  0  0  0  0
   -8.5686    2.8173    4.1180 C   0  0  0  0  0  0  0  0  0  0  0  0
   -9.6453    2.1322    2.8564 S   0  0  0  0  0  0  0  0  0  0  0  0
   -9.2293    3.3955    1.6036 C   0  0  0  0  0  0  0  0  0  0  0  0
   -7.8117    3.2393    1.1222 C   0  0  0  0  0  0  0  0  0  0  0  0
   -7.0061    4.1935    1.2892 O   0  0  0  0  0  0  0  0  0  0  0  0
   -7.3297    2.0154    0.5443 N   0  0  0  0  0  0  0  0  0  0  0  0
   -8.1769    0.9852    0.0174 C   0  0  0  0  0  0  0  0  0  0  0  0
   -9.1728    1.2846   -0.9215 C   0  0  0  0  0  0  0  0  0  0  0  0
   -9.9764    0.2686   -1.4396 C   0  0  0  0  0  0  0  0  0  0  0  0
   -9.7853   -1.0572   -1.0400 C   0  0  0  0  0  0  0  0  0  0  0  0
  -10.5887   -2.0152   -1.5672 F   0  0  0  0  0  0  0  0  0  0  0  0
   -8.7682   -1.3819   -0.1156 C   0  0  0  0  0  0  0  0  0  0  0  0
   -8.5424   -2.7424    0.3055 N   0  0  0  0  0  0  0  0  0  0  0  0
   -9.2411   -3.6777   -0.1363 O   0  0  0  0  0  0  0  0  0  0  0  0
   -7.5466   -3.0355    1.2092 O   0  0  0  0  0  0  0  0  0  0  0  0
   -7.9642   -0.3467    0.3974 C   0  0  0  0  0  0  0  0  0  0  0  0
   -8.9112    3.7871    4.9822 N   0  0  0  0  0  0  0  0  0  0  0  0
  -10.1046    4.5282    4.9912 N   0  0  0  0  0  0  0  0  0  0  0  0
  1  3  4  0
  1 14  4  0
  1  2  1  0
  3  4  4  0
  4  5  4  0
  5  6  4  0
  5 22  1  0
  6  7  1  0
  6 14  4  0
  7  8  1  0
  8  9  4  0
  8 12  4  0
  9 10  4  0
 10 11  4  0
 11 12  4  0
 12 13  1  0
 13 14  1  0
 13 15  1  6
 15 16  4  0
 15 20  4  0
 16 17  4  0
 17 18  4  0
 17 21  1  0
 18 19  4  0
 19 20  4  0
 23 24  4  0
 24 25  4  0
 25 26  1  0
 26 27  1  0
 27 28  1  0
 28 29  2  0
 28 30  1  0
 30 31  1  0
 31 32  4  0
 32 33  4  0
 33 34  4  0
 34 35  1  0
 34 36  4  0
 36 37  1  0
 37 38  2  0
 37 39  1  0
 36 40  4  0
 25 41  4  0
 41 42  1  0
 40 31  4  0
  2 23  4  0
  2 41  4  0
M  CHG  2  37   1  39  -1
M  END
$$$$

     RDKit          3D

 42 47  0  0  0  0  0  0  0  0999 V2000
   -7.6410    4.9930    6.8080 C   0  0  0  0  0  0  0  0  0  1  0  0
   -7.7310    4.0530    5.7140 C   0  0  0  0  0  0  0  0  0  2  0  0
   -6.4520    5.6300    6.8680 N   0  0  0  0  0  0  0  0  0  0  0  0
   -6.2260    6.5240    7.8670 N   0  0  0  0  0  0  0  0  0  0  0  0
   -7.1930    6.7500    8.7820 C   0  0  0  0  0  0  0  0  0  0  0  0
   -8.4240    6.1170    8.7580 C   0  0  0  0  0  0  0  0  0  0  0  0
   -9.3950    6.3570    9.7450 N   0  0  0  0  0  0  0  0  0  0  0  0
  -10.5620    5.6840    9.7600 C   0  0  0  0  0  0  0  0  0  0  0  0
  -11.5770    5.6820   10.5960 N   0  0  0  0  0  0  0  0  0  0  0  0
  -12.4690    4.7490   10.1080 N   0  0  0  0  0  0  0  0  0  0  0  0
  -12.0160    4.1880    8.9920 N   0  0  0  0  0  0  0  0  0  0  0  0
  -10.8400    4.7900    8.7610 N   0  0  0  0  0  0  0  0  0  0  0  0
   -9.9950    4.4790    7.6090 C   0  0  0  0  0  0  0  0  0  0  0  0
   -8.6630    5.2070    7.7200 C   0  0  0  0  0  0  0  0  0  0  0  0
  -10.7490    4.8610    6.3730 C   0  0  0  0  0  0  0  0  0  0  0  0
  -11.0350    6.2020    6.1170 C   0  0  0  0  0  0  0  0  0  0  0  0
  -11.7370    6.5580    4.9650 C   0  0  0  0  0  0  0  0  0  0  0  0
  -12.1550    5.5730    4.0710 C   0  0  0  0  0  0  0  0  0  0  0  0
  -11.8700    4.2310    4.3270 C   0  0  0  0  0  0  0  0  0  0  0  0
  -11.1660    3.8760    5.4790 C   0  0  0  0  0  0  0  0  0  0  0  0
  -12.0160    7.8660    4.7150 O   0  0  0  0  0  0  0  0  0  0  0  0
   -6.8990    7.6510    9.7710 O   0  0  0  0  0  0  0  0  0  0  0  0
   -6.7930    3.1917    5.2676 N   0  0  0  0  0  0  0  0  0  0  0  0
   -7.2839    2.4502    4.2819 N   0  0  0  0  0  0  0  0  0  0  0  0
   -8.5678    2.8219    4.1126 C   0  0  0  0  0  0  0  0  0  0  0  0
   -9.6411    2.1545    2.8385 S   0  0  0  0  0  0  0  0  0  0  0  0
  -10.3371    0.8435    3.9088 C   0  0  0  0  0  0  0  0  0  0  0  0
   -9.4372   -0.3546    4.0257 C   0  0  0  0  0  0  0  0  0  0  0  0
   -8.3347   -0.3881    3.4130 O   0  0  0  0  0  0  0  0  0  0  0  0
   -9.8727   -1.4815    4.8022 N   0  0  0  0  0  0  0  0  0  0  0  0
   -9.1001   -2.6826    4.9795 C   0  0  0  0  0  0  0  0  0  0  0  0
   -7.7133   -2.6357    5.1949 C   0  0  0  0  0  0  0  0  0  0  0  0
   -6.9918   -3.8146    5.3836 C   0  0  0  0  0  0  0  0  0  0  0  0
   -7.6398   -5.0526    5.3678 C   0  0  0  0  0  0  0  0  0  0  0  0
   -6.8996   -6.1758    5.5491 F   0  0  0  0  0  0  0  0  0  0  0  0
   -9.0365   -5.1205    5.1761 C   0  0  0  0  0  0  0  0  0  0  0  0
   -9.7327   -6.3832    5.1665 N   0  0  0  0  0  0  0  0  0  0  0  0
   -9.1123   -7.4616    5.2675 O   0  0  0  0  0  0  0  0  0  0  0  0
  -11.1029   -6.4217    5.0311 O   0  0  0  0  0  0  0  0  0  0  0  0
   -9.7547   -3.9230    4.9939 C   0  0  0  0  0  0  0  0  0  0  0  0
   -8.9099    3.7914    4.9778 N   0  0  0  0  0  0  0  0  0  0  0  0
  -10.1045    4.5307    4.9898 N   0  0  0  0  0  0  0  0  0  0  0  0
  1  3  4  0
  1 14  4  0
  1  2  1  0
  3  4  4  0
  4  5  4  0
  5  6  4  0
  5 22  1  0
  6  7  1  0
  6 14  4  0
  7  8  1  0
  8  9  4  0
  8 12  4  0
  9 10  4  0
 10 11  4  0
 11 12  4  0
 12 13  1  0
 13 14  1  0
 13 15  1  6
 15 16  4  0
 15 20  4  0
 16 17  4  0
 17 18  4  0
 17 21  1  0
 18 19  4  0
 19 20  4  0
 23 24  4  0
 24 25  4  0
 25 26  1  0
 26 27  1  0
 27 28  1  0
 28 29  2  0
 28 30  1  0
 30 31  1  0
 31 32  4  0
 32 33  4  0
 33 34  4  0
 34 35  1  0
 34 36  4  0
 36 37  1  0
 37 38  2  0
 37 39  1  0
 36 40  4  0
 25 41  4  0
 41 42  1  0
 40 31  4  0
  2 23  4  0
  2 41  4  0
M  CHG  2  37   1  39  -1
M  END
$$$$

     RDKit          3D

 46 53  0  0  0  0  0  0  0  0999 V2000
   -7.6410    4.9930    6.8080 C   0  0  0  0  0  0  0  0  0  1  0  0
   -7.7310    4.0530    5.7140 C   0  0  0  0  0  0  0  0  0  2  0  0
   -6.4520    5.6300    6.8680 N   0  0  0  0  0  0  0  0  0  0  0  0
   -6.2260    6.5240    7.8670 N   0  0  0  0  0  0  0  0  0  0  0  0
   -7.1930    6.7500    8.7820 C   0  0  0  0  0  0  0  0  0  0  0  0
   -8.4240    6.1170    8.7580 C   0  0  0  0  0  0  0  0  0  0  0  0
   -9.3950    6.3570    9.7450 N   0  0  0  0  0  0  0  0  0  0  0  0
  -10.5620    5.6840    9.7600 C   0  0  0  0  0  0  0  0  0  0  0  0
  -11.5770    5.6820   10.5960 N   0  0  0  0  0  0  0  0  0  0  0  0
  -12.4690    4.7490   10.1080 N   0  0  0  0  0  0  0  0  0  0  0  0
  -12.0160    4.1880    8.9920 N   0  0  0  0  0  0  0  0  0  0  0  0
  -10.8400    4.7900    8.7610 N   0  0  0  0  0  0  0  0  0  0  0  0
   -9.9950    4.4790    7.6090 C   0  0  0  0  0  0  0  0  0  0  0  0
   -8.6630    5.2070    7.7200 C   0  0  0  0  0  0  0  0  0  0  0  0
  -10.7490    4.8610    6.3730 C   0  0  0  0  0  0  0  0  0  0  0  0
  -11.0350    6.2020    6.1170 C   0  0  0  0  0  0  0  0  0  0  0  0
  -11.7370    6.5580    4.9650 C   0  0  0  0  0  0  0  0  0  0  0  0
  -12.1550    5.5730    4.0710 C   0  0  0  0  0  0  0  0  0  0  0  0
  -11.8700    4.2310    4.3270 C   0  0  0  0  0  0  0  0  0  0  0  0
  -11.1660    3.8760    5.4790 C   0  0  0  0  0  0  0  0  0  0  0  0
  -12.0160    7.8660    4.7150 O   0  0  0  0  0  0  0  0  0  0  0  0
   -6.8990    7.6510    9.7710 O   0  0  0  0  0  0  0  0  0  0  0  0
   -6.7614    3.0842    5.3990 C   0  0  0  0  0  0  0  0  0  0  0  0
   -6.8993    2.1456    4.3609 C   0  0  0  0  0  0  0  0  0  0  0  0
   -5.7731    1.1933    4.0158 C   0  0  0  0  0  0  0  0  0  0  0  0
   -4.6371    1.9080    3.2212 C   0  0  0  0  0  0  0  0  0  0  0  0
   -4.5442    1.3145    1.8257 C   0  0  0  0  0  0  0  0  0  0  0  0
   -3.6453    0.3755    1.5016 C   0  0  0  0  0  0  0  0  0  0  0  0
   -2.6502   -0.1124    2.5108 C   0  0  0  0  0  0  0  0  0  0  0  0
   -2.1541    1.0708    3.3422 C   0  0  0  0  0  0  0  0  0  0  0  0
   -3.3228    1.7803    4.0819 C   0  0  0  0  0  0  0  0  0  0  0  0
   -2.8516    3.1611    4.5797 C   0  0  0  0  0  0  0  0  0  0  0  0
   -3.7751    0.9703    5.2492 C   0  0  0  0  0  0  0  0  0  0  0  0
   -3.0138    0.6133    6.1903 O   0  0  0  0  0  0  0  0  0  0  0  0
   -5.1552    0.6553    5.2207 N   0  0  0  0  0  0  0  0  0  0  0  0
   -5.7969   -0.3348    6.0880 C   0  0  0  0  0  0  0  0  0  0  0  0
   -5.8513   -1.6696    5.3953 C   0  0  0  0  0  0  0  0  0  0  0  0
   -4.6748   -2.4134    5.2028 C   0  0  0  0  0  0  0  0  0  0  0  0
   -4.7170   -3.6330    4.5200 C   0  0  0  0  0  0  0  0  0  0  0  0
   -5.9317   -4.1201    4.0290 C   0  0  0  0  0  0  0  0  0  0  0  0
   -7.1072   -3.3868    4.2177 C   0  0  0  0  0  0  0  0  0  0  0  0
   -7.0694   -2.1646    4.8966 C   0  0  0  0  0  0  0  0  0  0  0  0
   -8.0740    2.1419    3.5939 C   0  0  0  0  0  0  0  0  0  0  0  0
   -9.0999    3.0471    3.8698 C   0  0  0  0  0  0  0  0  0  0  0  0
   -8.9632    3.9749    4.9058 C   0  0  0  0  0  0  0  0  0  0  0  0
   -9.9597    4.8715    5.1184 F   0  0  0  0  0  0  0  0  0  0  0  0
  1  3  4  0
  1 14  4  0
  1  2  1  0
  3  4  4  0
  4  5  4  0
  5  6  4  0
  5 22  1  0
  6  7  1  0
  6 14  4  0
  7  8  1  0
  8  9  4  0
  8 12  4  0
  9 10  4  0
 10 11  4  0
 11 12  4  0
 12 13  1  0
 13 14  1  0
 13 15  1  6
 15 16  4  0
 15 20  4  0
 16 17  4  0
 17 18  4  0
 17 21  1  0
 18 19  4  0
 19 20  4  0
 23 24  4  0
 24 25  1  0
 25 26  1  0
 26 27  1  0
 27 28  2  0
 28 29  1  0
 29 30  1  0
 30 31  1  0
 31 32  1  0
 31 33  1  0
 33 34  2  0
 33 35  1  0
 35 36  1  0
 36 37  1  0
 37 38  4  0
 38 39  4  0
 39 40  4  0
 40 41  4  0
 41 42  4  0
 24 43  4  0
 43 44  4  0
 44 45  4  0
 45 46  1  0
 35 25  1  0
 42 37  4  0
 31 26  1  0
  2 23  4  0
  2 45  4  0
M  END
$$$$

     RDKit          3D

 33 38  0  0  0  0  0  0  0  0999 V2000
   -7.6410    4.9930    6.8080 C   0  0  0  0  0  0  0  0  0  1  0  0
   -7.7310    4.0530    5.7140 C   0  0  0  0  0  0  0  0  0  2  0  0
   -6.4520    5.6300    6.8680 N   0  0  0  0  0  0  0  0  0  0  0  0
   -6.2260    6.5240    7.8670 N   0  0  0  0  0  0  0  0  0  0  0  0
   -7.1930    6.7500    8.7820 C   0  0  0  0  0  0  0  0  0  0  0  0
   -8.4240    6.1170    8.7580 C   0  0  0  0  0  0  0  0  0  0  0  0
   -9.3950    6.3570    9.7450 N   0  0  0  0  0  0  0  0  0  0  0  0
  -10.5620    5.6840    9.7600 C   0  0  0  0  0  0  0  0  0  0  0  0
  -11.5770    5.6820   10.5960 N   0  0  0  0  0  0  0  0  0  0  0  0
  -12.4690    4.7490   10.1080 N   0  0  0  0  0  0  0  0  0  0  0  0
  -12.0160    4.1880    8.9920 N   0  0  0  0  0  0  0  0  0  0  0  0
  -10.8400    4.7900    8.7610 N   0  0  0  0  0  0  0  0  0  0  0  0
   -9.9950    4.4790    7.6090 C   0  0  0  0  0  0  0  0  0  0  0  0
   -8.6630    5.2070    7.7200 C   0  0  0  0  0  0  0  0  0  0  0  0
  -10.7490    4.8610    6.3730 C   0  0  0  0  0  0  0  0  0  0  0  0
  -11.0350    6.2020    6.1170 C   0  0  0  0  0  0  0  0  0  0  0  0
  -11.7370    6.5580    4.9650 C   0  0  0  0  0  0  0  0  0  0  0  0
  -12.1550    5.5730    4.0710 C   0  0  0  0  0  0  0  0  0  0  0  0
  -11.8700    4.2310    4.3270 C   0  0  0  0  0  0  0  0  0  0  0  0
  -11.1660    3.8760    5.4790 C   0  0  0  0  0  0  0  0  0  0  0  0
  -12.0160    7.8660    4.7150 O   0  0  0  0  0  0  0  0  0  0  0  0
   -6.8990    7.6510    9.7710 O   0  0  0  0  0  0  0  0  0  0  0  0
   -6.8120    3.1038    5.3877 N   0  0  0  0  0  0  0  0  0  0  0  0
   -7.3531    2.3928    4.3832 C   0  0  0  0  0  0  0  0  0  0  0  0
   -6.7808    1.3232    3.6986 C   0  0  0  0  0  0  0  0  0  0  0  0
   -7.5374    0.7190    2.6774 C   0  0  0  0  0  0  0  0  0  0  0  0
   -8.8331    1.1929    2.3714 C   0  0  0  0  0  0  0  0  0  0  0  0
   -9.3821    2.2765    3.0820 C   0  0  0  0  0  0  0  0  0  0  0  0
   -8.6023    2.8548    4.0874 C   0  0  0  0  0  0  0  0  0  0  0  0
   -8.8890    3.8910    4.8956 N   0  0  0  0  0  0  0  0  0  0  0  0
  -10.0907    4.7294    4.8635 C   0  0  0  0  0  0  0  0  0  0  0  0
  -10.3616    5.1192    3.5642 F   0  0  0  0  0  0  0  0  0  0  0  0
  -11.1658    4.0197    5.3649 F   0  0  0  0  0  0  0  0  0  0  0  0
  1  3  4  0
  1 14  4  0
  1  2  1  0
  3  4  4  0
  4  5  4  0
  5  6  4  0
  5 22  1  0
  6  7  1  0
  6 14  4  0
  7  8  1  0
  8  9  4  0
  8 12  4  0
  9 10  4  0
 10 11  4  0
 11 12  4  0
 12 13  1  0
 13 14  1  0
 13 15  1  6
 15 16  4  0
 15 20  4  0
 16 17  4  0
 17 18  4  0
 17 21  1  0
 18 19  4  0
 19 20  4  0
 23 24  4  0
 24 25  4  0
 25 26  4  0
 26 27  4  0
 27 28  4  0
 28 29  4  0
 29 30  4  0
 30 31  1  0
 31 32  1  0
 31 33  1  0
 29 24  4  0
  2 23  4  0
  2 30  4  0
M  END
$$$$

     RDKit          3D

 30 34  0  0  0  0  0  0  0  0999 V2000
   -7.6410    4.9930    6.8080 C   0  0  0  0  0  0  0  0  0  1  0  0
   -7.7310    4.0530    5.7140 C   0  0  0  0  0  0  0  0  0  2  0  0
   -6.4520    5.6300    6.8680 N   0  0  0  0  0  0  0  0  0  0  0  0
   -6.2260    6.5240    7.8670 N   0  0  0  0  0  0  0  0  0  0  0  0
   -7.1930    6.7500    8.7820 C   0  0  0  0  0  0  0  0  0  0  0  0
   -8.4240    6.1170    8.7580 C   0  0  0  0  0  0  0  0  0  0  0  0
   -9.3950    6.3570    9.7450 N   0  0  0  0  0  0  0  0  0  0  0  0
  -10.5620    5.6840    9.7600 C   0  0  0  0  0  0  0  0  0  0  0  0
  -11.5770    5.6820   10.5960 N   0  0  0  0  0  0  0  0  0  0  0  0
  -12.4690    4.7490   10.1080 N   0  0  0  0  0  0  0  0  0  0  0  0
  -12.0160    4.1880    8.9920 N   0  0  0  0  0  0  0  0  0  0  0  0
  -10.8400    4.7900    8.7610 N   0  0  0  0  0  0  0  0  0  0  0  0
   -9.9950    4.4790    7.6090 C   0  0  0  0  0  0  0  0  0  0  0  0
   -8.6630    5.2070    7.7200 C   0  0  0  0  0  0  0  0  0  0  0  0
  -10.7490    4.8610    6.3730 C   0  0  0  0  0  0  0  0  0  0  0  0
  -11.0350    6.2020    6.1170 C   0  0  0  0  0  0  0  0  0  0  0  0
  -11.7370    6.5580    4.9650 C   0  0  0  0  0  0  0  0  0  0  0  0
  -12.1550    5.5730    4.0710 C   0  0  0  0  0  0  0  0  0  0  0  0
  -11.8700    4.2310    4.3270 C   0  0  0  0  0  0  0  0  0  0  0  0
  -11.1660    3.8760    5.4790 C   0  0  0  0  0  0  0  0  0  0  0  0
  -12.0160    7.8660    4.7150 O   0  0  0  0  0  0  0  0  0  0  0  0
   -6.8990    7.6510    9.7710 O   0  0  0  0  0  0  0  0  0  0  0  0
   -8.7953    4.2224    4.6983 C   0  0  0  0  0  0  0  0  0  0  0  0
   -9.8309    5.8382    4.6497 Br  0  0  0  0  0  0  0  0  0  0  0  0
   -9.0086    3.2779    3.6887 C   0  0  0  0  0  0  0  0  0  0  0  0
   -8.2484    2.1025    3.6400 C   0  0  0  0  0  0  0  0  0  0  0  0
   -8.5105    1.0769    2.5769 C   0  0  0  0  0  0  0  0  0  0  0  0
   -7.2883    1.8616    4.6309 C   0  0  0  0  0  0  0  0  0  0  0  0
   -7.0637    2.7970    5.6464 C   0  0  0  0  0  0  0  0  0  0  0  0
   -5.7538    2.3749    6.9850 Br  0  0  0  0  0  0  0  0  0  0  0  0
  1  3  4  0
  1 14  4  0
  1  2  1  0
  3  4  4  0
  4  5  4  0
  5  6  4  0
  5 22  1  0
  6  7  1  0
  6 14  4  0
  7  8  1  0
  8  9  4  0
  8 12  4  0
  9 10  4  0
 10 11  4  0
 11 12  4  0
 12 13  1  0
 13 14  1  0
 13 15  1  6
 15 16  4  0
 15 20  4  0
 16 17  4  0
 17 18  4  0
 17 21  1  0
 18 19  4  0
 19 20  4  0
 23 24  1  0
 23 25  4  0
 25 26  4  0
 26 27  1  0
 26 28  4  0
 28 29  4  0
 29 30  1  0
  2 23  4  0
  2 29  4  0
M  END
$$$$

     RDKit          3D

 30 34  0  0  0  0  0  0  0  0999 V2000
   -7.6410    4.9930    6.8080 C   0  0  0  0  0  0  0  0  0  1  0  0
   -7.7310    4.0530    5.7140 C   0  0  0  0  0  0  0  0  0  2  0  0
   -6.4520    5.6300    6.8680 N   0  0  0  0  0  0  0  0  0  0  0  0
   -6.2260    6.5240    7.8670 N   0  0  0  0  0  0  0  0  0  0  0  0
   -7.1930    6.7500    8.7820 C   0  0  0  0  0  0  0  0  0  0  0  0
   -8.4240    6.1170    8.7580 C   0  0  0  0  0  0  0  0  0  0  0  0
   -9.3950    6.3570    9.7450 N   0  0  0  0  0  0  0  0  0  0  0  0
  -10.5620    5.6840    9.7600 C   0  0  0  0  0  0  0  0  0  0  0  0
  -11.5770    5.6820   10.5960 N   0  0  0  0  0  0  0  0  0  0  0  0
  -12.4690    4.7490   10.1080 N   0  0  0  0  0  0  0  0  0  0  0  0
  -12.0160    4.1880    8.9920 N   0  0  0  0  0  0  0  0  0  0  0  0
  -10.8400    4.7900    8.7610 N   0  0  0  0  0  0  0  0  0  0  0  0
   -9.9950    4.4790    7.6090 C   0  0  0  0  0  0  0  0  0  0  0  0
   -8.6630    5.2070    7.7200 C   0  0  0  0  0  0  0  0  0  0  0  0
  -10.7490    4.8610    6.3730 C   0  0  0  0  0  0  0  0  0  0  0  0
  -11.0350    6.2020    6.1170 C   0  0  0  0  0  0  0  0  0  0  0  0
  -11.7370    6.5580    4.9650 C   0  0  0  0  0  0  0  0  0  0  0  0
  -12.1550    5.5730    4.0710 C   0  0  0  0  0  0  0  0  0  0  0  0
  -11.8700    4.2310    4.3270 C   0  0  0  0  0  0  0  0  0  0  0  0
  -11.1660    3.8760    5.4790 C   0  0  0  0  0  0  0  0  0  0  0  0
  -12.0160    7.8660    4.7150 O   0  0  0  0  0  0  0  0  0  0  0  0
   -6.8990    7.6510    9.7710 O   0  0  0  0  0  0  0  0  0  0  0  0
   -7.0564    2.8015    5.6403 C   0  0  0  0  0  0  0  0  0  0  0  0
   -5.7367    2.3849    6.9708 Br  0  0  0  0  0  0  0  0  0  0  0  0
   -7.2813    1.8659    4.6250 C   0  0  0  0  0  0  0  0  0  0  0  0
   -8.2491    2.1014    3.6405 C   0  0  0  0  0  0  0  0  0  0  0  0
   -8.5111    1.0754    2.5778 C   0  0  0  0  0  0  0  0  0  0  0  0
   -9.0171    3.2714    3.6957 C   0  0  0  0  0  0  0  0  0  0  0  0
   -8.8038    4.2163    4.7051 C   0  0  0  0  0  0  0  0  0  0  0  0
   -9.8519    5.8241    4.6652 Br  0  0  0  0  0  0  0  0  0  0  0  0
  1  3  4  0
  1 14  4  0
  1  2  1  0
  3  4  4  0
  4  5  4  0
  5  6  4  0
  5 22  1  0
  6  7  1  0
  6 14  4  0
  7  8  1  0
  8  9  4  0
  8 12  4  0
  9 10  4  0
 10 11  4  0
 11 12  4  0
 12 13  1  0
 13 14  1  0
 13 15  1  6
 15 16  4  0
 15 20  4  0
 16 17  4  0
 17 18  4  0
 17 21  1  0
 18 19  4  0
 19 20  4  0
 23 24  1  0
 23 25  4  0
 25 26  4  0
 26 27  1  0
 26 28  4  0
 28 29  4  0
 29 30  1  0
  2 23  4  0
  2 29  4  0
M  END
$$$$

     RDKit          3D

 29 33  0  0  0  0  0  0  0  0999 V2000
   -7.6410    4.9930    6.8080 C   0  0  0  0  0  0  0  0  0  1  0  0
   -7.7310    4.0530    5.7140 C   0  0  0  0  0  0  0  0  0  2  0  0
   -6.4520    5.6300    6.8680 N   0  0  0  0  0  0  0  0  0  0  0  0
   -6.2260    6.5240    7.8670 N   0  0  0  0  0  0  0  0  0  0  0  0
   -7.1930    6.7500    8.7820 C   0  0  0  0  0  0  0  0  0  0  0  0
   -8.4240    6.1170    8.7580 C   0  0  0  0  0  0  0  0  0  0  0  0
   -9.3950    6.3570    9.7450 N   0  0  0  0  0  0  0  0  0  0  0  0
  -10.5620    5.6840    9.7600 C   0  0  0  0  0  0  0  0  0  0  0  0
  -11.5770    5.6820   10.5960 N   0  0  0  0  0  0  0  0  0  0  0  0
  -12.4690    4.7490   10.1080 N   0  0  0  0  0  0  0  0  0  0  0  0
  -12.0160    4.1880    8.9920 N   0  0  0  0  0  0  0  0  0  0  0  0
  -10.8400    4.7900    8.7610 N   0  0  0  0  0  0  0  0  0  0  0  0
   -9.9950    4.4790    7.6090 C   0  0  0  0  0  0  0  0  0  0  0  0
   -8.6630    5.2070    7.7200 C   0  0  0  0  0  0  0  0  0  0  0  0
  -10.7490    4.8610    6.3730 C   0  0  0  0  0  0  0  0  0  0  0  0
  -11.0350    6.2020    6.1170 C   0  0  0  0  0  0  0  0  0  0  0  0
  -11.7370    6.5580    4.9650 C   0  0  0  0  0  0  0  0  0  0  0  0
  -12.1550    5.5730    4.0710 C   0  0  0  0  0  0  0  0  0  0  0  0
  -11.8700    4.2310    4.3270 C   0  0  0  0  0  0  0  0  0  0  0  0
  -11.1660    3.8760    5.4790 C   0  0  0  0  0  0  0  0  0  0  0  0
  -12.0160    7.8660    4.7150 O   0  0  0  0  0  0  0  0  0  0  0  0
   -6.8990    7.6510    9.7710 O   0  0  0  0  0  0  0  0  0  0  0  0
   -7.0467    2.8157    5.6788 C   0  0  0  0  0  0  0  0  0  0  0  0
   -7.2331    1.8605    4.6748 C   0  0  0  0  0  0  0  0  0  0  0  0
   -6.1976    0.2557    4.6788 Br  0  0  0  0  0  0  0  0  0  0  0  0
   -8.1771    2.0807    3.6683 C   0  0  0  0  0  0  0  0  0  0  0  0
   -8.9293    3.2579    3.6594 C   0  0  0  0  0  0  0  0  0  0  0  0
   -8.7497    4.2199    4.6605 C   0  0  0  0  0  0  0  0  0  0  0  0
   -9.7638    5.8452    4.5546 Br  0  0  0  0  0  0  0  0  0  0  0  0
  1  3  4  0
  1 14  4  0
  1  2  1  0
  3  4  4  0
  4  5  4  0
  5  6  4  0
  5 22  1  0
  6  7  1  0
  6 14  4  0
  7  8  1  0
  8  9  4  0
  8 12  4  0
  9 10  4  0
 10 11  4  0
 11 12  4  0
 12 13  1  0
 13 14  1  0
 13 15  1  6
 15 16  4  0
 15 20  4  0
 16 17  4  0
 17 18  4  0
 17 21  1  0
 18 19  4  0
 19 20  4  0
 23 24  4  0
 24 25  1  0
 24 26  4  0
 26 27  4  0
 27 28  4  0
 28 29  1  0
  2 23  4  0
  2 28  4  0
M  END
$$$$

     RDKit          3D

 45 50  0  0  0  0  0  0  0  0999 V2000
   -7.6410    4.9930    6.8080 C   0  0  0  0  0  0  0  0  0  1  0  0
   -7.7310    4.0530    5.7140 C   0  0  0  0  0  0  0  0  0  2  0  0
   -6.4520    5.6300    6.8680 N   0  0  0  0  0  0  0  0  0  0  0  0
   -6.2260    6.5240    7.8670 N   0  0  0  0  0  0  0  0  0  0  0  0
   -7.1930    6.7500    8.7820 C   0  0  0  0  0  0  0  0  0  0  0  0
   -8.4240    6.1170    8.7580 C   0  0  0  0  0  0  0  0  0  0  0  0
   -9.3950    6.3570    9.7450 N   0  0  0  0  0  0  0  0  0  0  0  0
  -10.5620    5.6840    9.7600 C   0  0  0  0  0  0  0  0  0  0  0  0
  -11.5770    5.6820   10.5960 N   0  0  0  0  0  0  0  0  0  0  0  0
  -12.4690    4.7490   10.1080 N   0  0  0  0  0  0  0  0  0  0  0  0
  -12.0160    4.1880    8.9920 N   0  0  0  0  0  0  0  0  0  0  0  0
  -10.8400    4.7900    8.7610 N   0  0  0  0  0  0  0  0  0  0  0  0
   -9.9950    4.4790    7.6090 C   0  0  0  0  0  0  0  0  0  0  0  0
   -8.6630    5.2070    7.7200 C   0  0  0  0  0  0  0  0  0  0  0  0
  -10.7490    4.8610    6.3730 C   0  0  0  0  0  0  0  0  0  0  0  0
  -11.0350    6.2020    6.1170 C   0  0  0  0  0  0  0  0  0  0  0  0
  -11.7370    6.5580    4.9650 C   0  0  0  0  0  0  0  0  0  0  0  0
  -12.1550    5.5730    4.0710 C   0  0  0  0  0  0  0  0  0  0  0  0
  -11.8700    4.2310    4.3270 C   0  0  0  0  0  0  0  0  0  0  0  0
  -11.1660    3.8760    5.4790 C   0  0  0  0  0  0  0  0  0  0  0  0
  -12.0160    7.8660    4.7150 O   0  0  0  0  0  0  0  0  0  0  0  0
   -6.8990    7.6510    9.7710 O   0  0  0  0  0  0  0  0  0  0  0  0
   -8.7874    3.9957    4.7094 C   0  0  0  0  0  0  0  0  0  0  0  0
   -9.7970    5.0770    4.4599 C   0  0  0  0  0  0  0  0  0  0  0  0
   -9.2235    6.0465    3.5869 O   0  0  0  0  0  0  0  0  0  0  0  0
   -9.7058    6.3371    2.3052 C   0  0  0  0  0  0  0  0  0  0  0  0
  -10.7861    5.8333    1.8942 O   0  0  0  0  0  0  0  0  0  0  0  0
   -8.9704    7.2212    1.4506 N   0  0  0  0  0  0  0  0  0  0  0  0
   -7.6865    7.8036    1.8566 C   0  0  0  0  0  0  0  0  0  0  0  0
   -7.3164    8.9700    0.9343 C   0  0  0  0  0  0  0  0  0  0  0  0
   -6.5891    6.7334    1.8314 C   0  0  0  0  0  0  0  0  0  0  0  0
   -8.4850    2.9398    3.8367 C   0  0  0  0  0  0  0  0  0  0  0  0
   -9.1093    2.6533    2.5038 C   0  0  0  0  0  0  0  0  0  0  0  0
   -9.0207    1.2634    2.2104 O   0  0  0  0  0  0  0  0  0  0  0  0
   -9.5581    0.7012    1.0478 C   0  0  0  0  0  0  0  0  0  0  0  0
  -10.1832    1.4204    0.2222 O   0  0  0  0  0  0  0  0  0  0  0  0
   -9.4089   -0.6990    0.7908 N   0  0  0  0  0  0  0  0  0  0  0  0
   -8.5955   -1.5630    1.6500 C   0  0  0  0  0  0  0  0  0  0  0  0
   -9.0454   -3.0197    1.5145 C   0  0  0  0  0  0  0  0  0  0  0  0
   -7.1184   -1.4215    1.2780 C   0  0  0  0  0  0  0  0  0  0  0  0
   -7.3339    2.3697    4.3474 C   0  0  0  0  0  0  0  0  0  0  0  0
   -6.9388    2.9953    5.4321 N   0  0  0  0  0  0  0  0  0  0  0  0
   -5.6831    2.5153    5.9582 C   0  0  0  0  0  0  0  0  0  0  0  0
   -5.2985    1.3776    4.9787 C   0  0  0  0  0  0  0  0  0  0  0  0
   -6.4028    1.3223    3.8891 C   0  0  0  0  0  0  0  0  0  0  0  0
  1  3  4  0
  1 14  4  0
  1  2  1  0
  3  4  4  0
  4  5  4  0
  5  6  4  0
  5 22  1  0
  6  7  1  0
  6 14  4  0
  7  8  1  0
  8  9  4  0
  8 12  4  0
  9 10  4  0
 10 11  4  0
 11 12  4  0
 12 13  1  0
 13 14  1  0
 13 15  1  6
 15 16  4  0
 15 20  4  0
 16 17  4  0
 17 18  4  0
 17 21  1  0
 18 19  4  0
 19 20  4  0
 23 24  1  0
 24 25  1  0
 25 26  1  0
 26 27  2  0
 26 28  1  0
 28 29  1  0
 29 30  1  0
 29 31  1  0
 23 32  4  0
 32 33  1  0
 33 34  1  0
 34 35  1  0
 35 36  2  0
 35 37  1  0
 37 38  1  0
 38 39  1  0
 38 40  1  0
 32 41  4  0
 41 42  4  0
 42 43  1  0
 43 44  1  0
 44 45  1  0
 45 41  1  0
  2 23  4  0
  2 42  4  0
M  END
$$$$

     RDKit          3D

 45 50  0  0  0  0  0  0  0  0999 V2000
   -7.6410    4.9930    6.8080 C   0  0  0  0  0  0  0  0  0  1  0  0
   -7.7310    4.0530    5.7140 C   0  0  0  0  0  0  0  0  0  2  0  0
   -6.4520    5.6300    6.8680 N   0  0  0  0  0  0  0  0  0  0  0  0
   -6.2260    6.5240    7.8670 N   0  0  0  0  0  0  0  0  0  0  0  0
   -7.1930    6.7500    8.7820 C   0  0  0  0  0  0  0  0  0  0  0  0
   -8.4240    6.1170    8.7580 C   0  0  0  0  0  0  0  0  0  0  0  0
   -9.3950    6.3570    9.7450 N   0  0  0  0  0  0  0  0  0  0  0  0
  -10.5620    5.6840    9.7600 C   0  0  0  0  0  0  0  0  0  0  0  0
  -11.5770    5.6820   10.5960 N   0  0  0  0  0  0  0  0  0  0  0  0
  -12.4690    4.7490   10.1080 N   0  0  0  0  0  0  0  0  0  0  0  0
  -12.0160    4.1880    8.9920 N   0  0  0  0  0  0  0  0  0  0  0  0
  -10.8400    4.7900    8.7610 N   0  0  0  0  0  0  0  0  0  0  0  0
   -9.9950    4.4790    7.6090 C   0  0  0  0  0  0  0  0  0  0  0  0
   -8.6630    5.2070    7.7200 C   0  0  0  0  0  0  0  0  0  0  0  0
  -10.7490    4.8610    6.3730 C   0  0  0  0  0  0  0  0  0  0  0  0
  -11.0350    6.2020    6.1170 C   0  0  0  0  0  0  0  0  0  0  0  0
  -11.7370    6.5580    4.9650 C   0  0  0  0  0  0  0  0  0  0  0  0
  -12.1550    5.5730    4.0710 C   0  0  0  0  0  0  0  0  0  0  0  0
  -11.8700    4.2310    4.3270 C   0  0  0  0  0  0  0  0  0  0  0  0
  -11.1660    3.8760    5.4790 C   0  0  0  0  0  0  0  0  0  0  0  0
  -12.0160    7.8660    4.7150 O   0  0  0  0  0  0  0  0  0  0  0  0
   -6.8990    7.6510    9.7710 O   0  0  0  0  0  0  0  0  0  0  0  0
   -6.8705    3.0549    5.2104 C   0  0  0  0  0  0  0  0  0  0  0  0
   -5.4686    2.8282    5.6906 C   0  0  0  0  0  0  0  0  0  0  0  0
   -4.5742    3.5847    4.8774 O   0  0  0  0  0  0  0  0  0  0  0  0
   -3.3698    3.0879    4.3673 C   0  0  0  0  0  0  0  0  0  0  0  0
   -2.9439    1.9506    4.7155 O   0  0  0  0  0  0  0  0  0  0  0  0
   -2.6178    3.8948    3.4538 N   0  0  0  0  0  0  0  0  0  0  0  0
   -1.3319    3.4733    2.8906 C   0  0  0  0  0  0  0  0  0  0  0  0
   -1.2121    3.9611    1.4451 C   0  0  0  0  0  0  0  0  0  0  0  0
   -0.1906    4.0246    3.7445 C   0  0  0  0  0  0  0  0  0  0  0  0
   -7.4665    2.4233    4.1131 C   0  0  0  0  0  0  0  0  0  0  0  0
   -6.8623    1.3944    3.1986 C   0  0  0  0  0  0  0  0  0  0  0  0
   -7.0810    1.7441    1.8346 O   0  0  0  0  0  0  0  0  0  0  0  0
   -6.4765    2.8462    1.2173 C   0  0  0  0  0  0  0  0  0  0  0  0
   -5.6094    3.5255    1.8313 O   0  0  0  0  0  0  0  0  0  0  0  0
   -6.8545    3.2211   -0.1125 N   0  0  0  0  0  0  0  0  0  0  0  0
   -7.8702    2.4955   -0.8796 C   0  0  0  0  0  0  0  0  0  0  0  0
   -7.1945    1.6442   -1.9555 C   0  0  0  0  0  0  0  0  0  0  0  0
   -8.8539    3.4866   -1.5038 C   0  0  0  0  0  0  0  0  0  0  0  0
   -8.7300    2.9745    4.0182 C   0  0  0  0  0  0  0  0  0  0  0  0
   -8.9184    3.8832    4.9504 N   0  0  0  0  0  0  0  0  0  0  0  0
  -10.0914    4.6968    4.7278 C   0  0  0  0  0  0  0  0  0  0  0  0
  -10.7456    4.0546    3.4785 C   0  0  0  0  0  0  0  0  0  0  0  0
   -9.7847    2.9428    2.9848 C   0  0  0  0  0  0  0  0  0  0  0  0
  1  3  4  0
  1 14  4  0
  1  2  1  0
  3  4  4  0
  4  5  4  0
  5  6  4  0
  5 22  1  0
  6  7  1  0
  6 14  4  0
  7  8  1  0
  8  9  4  0
  8 12  4  0
  9 10  4  0
 10 11  4  0
 11 12  4  0
 12 13  1  0
 13 14  1  0
 13 15  1  6
 15 16  4  0
 15 20  4  0
 16 17  4  0
 17 18  4  0
 17 21  1  0
 18 19  4  0
 19 20  4  0
 23 24  1  0
 24 25  1  0
 25 26  1  0
 26 27  2  0
 26 28  1  0
 28 29  1  0
 29 30  1  0
 29 31  1  0
 23 32  4  0
 32 33  1  0
 33 34  1  0
 34 35  1  0
 35 36  2  0
 35 37  1  0
 37 38  1  0
 38 39  1  0
 38 40  1  0
 32 41  4  0
 41 42  4  0
 42 43  1  0
 43 44  1  0
 44 45  1  0
 45 41  1  0
  2 23  4  0
  2 42  4  0
M  END
$$$$

     RDKit          3D

 45 50  0  0  0  0  0  0  0  0999 V2000
   -7.6410    4.9930    6.8080 C   0  0  0  0  0  0  0  0  0  1  0  0
   -7.7310    4.0530    5.7140 C   0  0  0  0  0  0  0  0  0  2  0  0
   -6.4520    5.6300    6.8680 N   0  0  0  0  0  0  0  0  0  0  0  0
   -6.2260    6.5240    7.8670 N   0  0  0  0  0  0  0  0  0  0  0  0
   -7.1930    6.7500    8.7820 C   0  0  0  0  0  0  0  0  0  0  0  0
   -8.4240    6.1170    8.7580 C   0  0  0  0  0  0  0  0  0  0  0  0
   -9.3950    6.3570    9.7450 N   0  0  0  0  0  0  0  0  0  0  0  0
  -10.5620    5.6840    9.7600 C   0  0  0  0  0  0  0  0  0  0  0  0
  -11.5770    5.6820   10.5960 N   0  0  0  0  0  0  0  0  0  0  0  0
  -12.4690    4.7490   10.1080 N   0  0  0  0  0  0  0  0  0  0  0  0
  -12.0160    4.1880    8.9920 N   0  0  0  0  0  0  0  0  0  0  0  0
  -10.8400    4.7900    8.7610 N   0  0  0  0  0  0  0  0  0  0  0  0
   -9.9950    4.4790    7.6090 C   0  0  0  0  0  0  0  0  0  0  0  0
   -8.6630    5.2070    7.7200 C   0  0  0  0  0  0  0  0  0  0  0  0
  -10.7490    4.8610    6.3730 C   0  0  0  0  0  0  0  0  0  0  0  0
  -11.0350    6.2020    6.1170 C   0  0  0  0  0  0  0  0  0  0  0  0
  -11.7370    6.5580    4.9650 C   0  0  0  0  0  0  0  0  0  0  0  0
  -12.1550    5.5730    4.0710 C   0  0  0  0  0  0  0  0  0  0  0  0
  -11.8700    4.2310    4.3270 C   0  0  0  0  0  0  0  0  0  0  0  0
  -11.1660    3.8760    5.4790 C   0  0  0  0  0  0  0  0  0  0  0  0
  -12.0160    7.8660    4.7150 O   0  0  0  0  0  0  0  0  0  0  0  0
   -6.8990    7.6510    9.7710 O   0  0  0  0  0  0  0  0  0  0  0  0
   -6.9259    2.9595    5.3295 C   0  0  0  0  0  0  0  0  0  0  0  0
   -5.6672    2.5413    6.0345 C   0  0  0  0  0  0  0  0  0  0  0  0
   -5.7055    1.1374    6.2897 O   0  0  0  0  0  0  0  0  0  0  0  0
   -5.5555    0.5590    7.5546 C   0  0  0  0  0  0  0  0  0  0  0  0
   -5.3725    1.2803    8.5725 O   0  0  0  0  0  0  0  0  0  0  0  0
   -5.6147   -0.8701    7.6720 N   0  0  0  0  0  0  0  0  0  0  0  0
   -5.4422   -1.6213    8.9214 C   0  0  0  0  0  0  0  0  0  0  0  0
   -4.0415   -1.4114    9.5046 C   0  0  0  0  0  0  0  0  0  0  0  0
   -6.5363   -1.2721    9.9360 C   0  0  0  0  0  0  0  0  0  0  0  0
   -7.4724    2.3565    4.1867 C   0  0  0  0  0  0  0  0  0  0  0  0
   -6.9608    1.1400    3.4660 C   0  0  0  0  0  0  0  0  0  0  0  0
   -7.2351    1.2008    2.0685 O   0  0  0  0  0  0  0  0  0  0  0  0
   -6.6198    2.1107    1.2015 C   0  0  0  0  0  0  0  0  0  0  0  0
   -5.8268    2.9834    1.6500 O   0  0  0  0  0  0  0  0  0  0  0  0
   -6.8711    2.0440   -0.2070 N   0  0  0  0  0  0  0  0  0  0  0  0
   -7.6412    0.9498   -0.8064 C   0  0  0  0  0  0  0  0  0  0  0  0
   -7.3087    0.8220   -2.2960 C   0  0  0  0  0  0  0  0  0  0  0  0
   -9.1411    1.1894   -0.6116 C   0  0  0  0  0  0  0  0  0  0  0  0
   -8.6497    3.0407    3.9482 C   0  0  0  0  0  0  0  0  0  0  0  0
   -8.8270    3.9942    4.8339 N   0  0  0  0  0  0  0  0  0  0  0  0
   -9.9824    4.8189    4.5798 C   0  0  0  0  0  0  0  0  0  0  0  0
  -10.6164    4.1667    3.3243 C   0  0  0  0  0  0  0  0  0  0  0  0
   -9.6881    2.9967    2.9007 C   0  0  0  0  0  0  0  0  0  0  0  0
  1  3  4  0
  1 14  4  0
  1  2  1  0
  3  4  4  0
  4  5  4  0
  5  6  4  0
  5 22  1  0
  6  7  1  0
  6 14  4  0
  7  8  1  0
  8  9  4  0
  8 12  4  0
  9 10  4  0
 10 11  4  0
 11 12  4  0
 12 13  1  0
 13 14  1  0
 13 15  1  6
 15 16  4  0
 15 20  4  0
 16 17  4  0
 17 18  4  0
 17 21  1  0
 18 19  4  0
 19 20  4  0
 23 24  1  0
 24 25  1  0
 25 26  1  0
 26 27  2  0
 26 28  1  0
 28 29  1  0
 29 30  1  0
 29 31  1  0
 23 32  4  0
 32 33  1  0
 33 34  1  0
 34 35  1  0
 35 36  2  0
 35 37  1  0
 37 38  1  0
 38 39  1  0
 38 40  1  0
 32 41  4  0
 41 42  4  0
 42 43  1  0
 43 44  1  0
 44 45  1  0
 45 41  1  0
  2 23  4  0
  2 42  4  0
M  END
$$$$

     RDKit          3D

 45 50  0  0  0  0  0  0  0  0999 V2000
   -7.6410    4.9930    6.8080 C   0  0  0  0  0  0  0  0  0  1  0  0
   -7.7310    4.0530    5.7140 C   0  0  0  0  0  0  0  0  0  2  0  0
   -6.4520    5.6300    6.8680 N   0  0  0  0  0  0  0  0  0  0  0  0
   -6.2260    6.5240    7.8670 N   0  0  0  0  0  0  0  0  0  0  0  0
   -7.1930    6.7500    8.7820 C   0  0  0  0  0  0  0  0  0  0  0  0
   -8.4240    6.1170    8.7580 C   0  0  0  0  0  0  0  0  0  0  0  0
   -9.3950    6.3570    9.7450 N   0  0  0  0  0  0  0  0  0  0  0  0
  -10.5620    5.6840    9.7600 C   0  0  0  0  0  0  0  0  0  0  0  0
  -11.5770    5.6820   10.5960 N   0  0  0  0  0  0  0  0  0  0  0  0
  -12.4690    4.7490   10.1080 N   0  0  0  0  0  0  0  0  0  0  0  0
  -12.0160    4.1880    8.9920 N   0  0  0  0  0  0  0  0  0  0  0  0
  -10.8400    4.7900    8.7610 N   0  0  0  0  0  0  0  0  0  0  0  0
   -9.9950    4.4790    7.6090 C   0  0  0  0  0  0  0  0  0  0  0  0
   -8.6630    5.2070    7.7200 C   0  0  0  0  0  0  0  0  0  0  0  0
  -10.7490    4.8610    6.3730 C   0  0  0  0  0  0  0  0  0  0  0  0
  -11.0350    6.2020    6.1170 C   0  0  0  0  0  0  0  0  0  0  0  0
  -11.7370    6.5580    4.9650 C   0  0  0  0  0  0  0  0  0  0  0  0
  -12.1550    5.5730    4.0710 C   0  0  0  0  0  0  0  0  0  0  0  0
  -11.8700    4.2310    4.3270 C   0  0  0  0  0  0  0  0  0  0  0  0
  -11.1660    3.8760    5.4790 C   0  0  0  0  0  0  0  0  0  0  0  0
  -12.0160    7.8660    4.7150 O   0  0  0  0  0  0  0  0  0  0  0  0
   -6.8990    7.6510    9.7710 O   0  0  0  0  0  0  0  0  0  0  0  0
   -6.8965    3.0141    5.2545 C   0  0  0  0  0  0  0  0  0  0  0  0
   -5.5467    2.6915    5.8230 C   0  0  0  0  0  0  0  0  0  0  0  0
   -4.5396    3.2698    4.9971 O   0  0  0  0  0  0  0  0  0  0  0  0
   -3.2428    2.7552    4.8946 C   0  0  0  0  0  0  0  0  0  0  0  0
   -2.9279    1.6850    5.4866 O   0  0  0  0  0  0  0  0  0  0  0  0
   -2.2820    3.4438    4.0836 N   0  0  0  0  0  0  0  0  0  0  0  0
   -0.8976    2.9859    3.9400 C   0  0  0  0  0  0  0  0  0  0  0  0
   -0.1075    3.2737    5.2192 C   0  0  0  0  0  0  0  0  0  0  0  0
   -0.2337    3.6684    2.7391 C   0  0  0  0  0  0  0  0  0  0  0  0
   -7.4586    2.4266    4.1144 C   0  0  0  0  0  0  0  0  0  0  0  0
   -6.7973    1.4668    3.1660 C   0  0  0  0  0  0  0  0  0  0  0  0
   -7.7631    0.6452    2.5137 O   0  0  0  0  0  0  0  0  0  0  0  0
   -8.5447   -0.3036    3.1820 C   0  0  0  0  0  0  0  0  0  0  0  0
   -8.3695   -0.5196    4.4126 O   0  0  0  0  0  0  0  0  0  0  0  0
   -9.5569   -1.0080    2.4485 N   0  0  0  0  0  0  0  0  0  0  0  0
  -10.5081   -1.9619    3.0319 C   0  0  0  0  0  0  0  0  0  0  0  0
  -11.3938   -1.2877    4.0858 C   0  0  0  0  0  0  0  0  0  0  0  0
   -9.7849   -3.1896    3.5956 C   0  0  0  0  0  0  0  0  0  0  0  0
   -8.6617    3.0765    3.9295 C   0  0  0  0  0  0  0  0  0  0  0  0
   -8.8612    3.9748    4.8696 N   0  0  0  0  0  0  0  0  0  0  0  0
   -9.9497    4.8788    4.5789 C   0  0  0  0  0  0  0  0  0  0  0  0
  -10.5369    4.3210    3.2577 C   0  0  0  0  0  0  0  0  0  0  0  0
   -9.6148    3.1596    2.8062 C   0  0  0  0  0  0  0  0  0  0  0  0
  1  3  4  0
  1 14  4  0
  1  2  1  0
  3  4  4  0
  4  5  4  0
  5  6  4  0
  5 22  1  0
  6  7  1  0
  6 14  4  0
  7  8  1  0
  8  9  4  0
  8 12  4  0
  9 10  4  0
 10 11  4  0
 11 12  4  0
 12 13  1  0
 13 14  1  0
 13 15  1  6
 15 16  4  0
 15 20  4  0
 16 17  4  0
 17 18  4  0
 17 21  1  0
 18 19  4  0
 19 20  4  0
 23 24  1  0
 24 25  1  0
 25 26  1  0
 26 27  2  0
 26 28  1  0
 28 29  1  0
 29 30  1  0
 29 31  1  0
 23 32  4  0
 32 33  1  0
 33 34  1  0
 34 35  1  0
 35 36  2  0
 35 37  1  0
 37 38  1  0
 38 39  1  0
 38 40  1  0
 32 41  4  0
 41 42  4  0
 42 43  1  0
 43 44  1  0
 44 45  1  0
 45 41  1  0
  2 23  4  0
  2 42  4  0
M  END
$$$$

     RDKit          3D

 45 50  0  0  0  0  0  0  0  0999 V2000
   -7.6410    4.9930    6.8080 C   0  0  0  0  0  0  0  0  0  1  0  0
   -7.7310    4.0530    5.7140 C   0  0  0  0  0  0  0  0  0  2  0  0
   -6.4520    5.6300    6.8680 N   0  0  0  0  0  0  0  0  0  0  0  0
   -6.2260    6.5240    7.8670 N   0  0  0  0  0  0  0  0  0  0  0  0
   -7.1930    6.7500    8.7820 C   0  0  0  0  0  0  0  0  0  0  0  0
   -8.4240    6.1170    8.7580 C   0  0  0  0  0  0  0  0  0  0  0  0
   -9.3950    6.3570    9.7450 N   0  0  0  0  0  0  0  0  0  0  0  0
  -10.5620    5.6840    9.7600 C   0  0  0  0  0  0  0  0  0  0  0  0
  -11.5770    5.6820   10.5960 N   0  0  0  0  0  0  0  0  0  0  0  0
  -12.4690    4.7490   10.1080 N   0  0  0  0  0  0  0  0  0  0  0  0
  -12.0160    4.1880    8.9920 N   0  0  0  0  0  0  0  0  0  0  0  0
  -10.8400    4.7900    8.7610 N   0  0  0  0  0  0  0  0  0  0  0  0
   -9.9950    4.4790    7.6090 C   0  0  0  0  0  0  0  0  0  0  0  0
   -8.6630    5.2070    7.7200 C   0  0  0  0  0  0  0  0  0  0  0  0
  -10.7490    4.8610    6.3730 C   0  0  0  0  0  0  0  0  0  0  0  0
  -11.0350    6.2020    6.1170 C   0  0  0  0  0  0  0  0  0  0  0  0
  -11.7370    6.5580    4.9650 C   0  0  0  0  0  0  0  0  0  0  0  0
  -12.1550    5.5730    4.0710 C   0  0  0  0  0  0  0  0  0  0  0  0
  -11.8700    4.2310    4.3270 C   0  0  0  0  0  0  0  0  0  0  0  0
  -11.1660    3.8760    5.4790 C   0  0  0  0  0  0  0  0  0  0  0  0
  -12.0160    7.8660    4.7150 O   0  0  0  0  0  0  0  0  0  0  0  0
   -6.8990    7.6510    9.7710 O   0  0  0  0  0  0  0  0  0  0  0  0
   -8.9559    3.7347    4.9581 C   0  0  0  0  0  0  0  0  0  0  0  0
  -10.2262    4.5406    4.9912 C   0  0  0  0  0  0  0  0  0  0  0  0
  -10.8074    4.5991    3.6963 O   0  0  0  0  0  0  0  0  0  0  0  0
  -11.7659    5.5481    3.3325 C   0  0  0  0  0  0  0  0  0  0  0  0
  -11.7837    6.6768    3.8896 O   0  0  0  0  0  0  0  0  0  0  0  0
  -12.7505    5.2387    2.3395 N   0  0  0  0  0  0  0  0  0  0  0  0
  -12.8818    3.8943    1.7709 C   0  0  0  0  0  0  0  0  0  0  0  0
  -13.5746    3.9605    0.4074 C   0  0  0  0  0  0  0  0  0  0  0  0
  -13.6659    2.9994    2.7340 C   0  0  0  0  0  0  0  0  0  0  0  0
   -8.7093    2.5580    4.2318 C   0  0  0  0  0  0  0  0  0  0  0  0
   -9.6820    1.6913    3.4828 C   0  0  0  0  0  0  0  0  0  0  0  0
   -9.1159    1.2726    2.2448 O   0  0  0  0  0  0  0  0  0  0  0  0
   -8.7707    2.1645    1.2219 C   0  0  0  0  0  0  0  0  0  0  0  0
   -9.0999    3.3791    1.2947 O   0  0  0  0  0  0  0  0  0  0  0  0
   -8.0270    1.6827    0.0972 N   0  0  0  0  0  0  0  0  0  0  0  0
   -7.3387    2.5930   -0.8226 C   0  0  0  0  0  0  0  0  0  0  0  0
   -6.0013    3.0267   -0.2154 C   0  0  0  0  0  0  0  0  0  0  0  0
   -7.1279    1.9139   -2.1762 C   0  0  0  0  0  0  0  0  0  0  0  0
   -7.4006    2.2229    4.5140 C   0  0  0  0  0  0  0  0  0  0  0  0
   -6.8569    3.0881    5.3407 N   0  0  0  0  0  0  0  0  0  0  0  0
   -5.6389    2.6104    5.9515 C   0  0  0  0  0  0  0  0  0  0  0  0
   -5.3925    1.2533    5.2472 C   0  0  0  0  0  0  0  0  0  0  0  0
   -6.6300    0.9774    4.3566 C   0  0  0  0  0  0  0  0  0  0  0  0
  1  3  4  0
  1 14  4  0
  1  2  1  0
  3  4  4  0
  4  5  4  0
  5  6  4  0
  5 22  1  0
  6  7  1  0
  6 14  4  0
  7  8  1  0
  8  9  4  0
  8 12  4  0
  9 10  4  0
 10 11  4  0
 11 12  4  0
 12 13  1  0
 13 14  1  0
 13 15  1  6
 15 16  4  0
 15 20  4  0
 16 17  4  0
 17 18  4  0
 17 21  1  0
 18 19  4  0
 19 20  4  0
 23 24  1  0
 24 25  1  0
 25 26  1  0
 26 27  2  0
 26 28  1  0
 28 29  1  0
 29 30  1  0
 29 31  1  0
 23 32  4  0
 32 33  1  0
 33 34  1  0
 34 35  1  0
 35 36  2  0
 35 37  1  0
 37 38  1  0
 38 39  1  0
 38 40  1  0
 32 41  4  0
 41 42  4  0
 42 43  1  0
 43 44  1  0
 44 45  1  0
 45 41  1  0
  2 23  4  0
  2 42  4  0
M  END
$$$$

     RDKit          3D

 45 50  0  0  0  0  0  0  0  0999 V2000
   -7.6410    4.9930    6.8080 C   0  0  0  0  0  0  0  0  0  1  0  0
   -7.7310    4.0530    5.7140 C   0  0  0  0  0  0  0  0  0  2  0  0
   -6.4520    5.6300    6.8680 N   0  0  0  0  0  0  0  0  0  0  0  0
   -6.2260    6.5240    7.8670 N   0  0  0  0  0  0  0  0  0  0  0  0
   -7.1930    6.7500    8.7820 C   0  0  0  0  0  0  0  0  0  0  0  0
   -8.4240    6.1170    8.7580 C   0  0  0  0  0  0  0  0  0  0  0  0
   -9.3950    6.3570    9.7450 N   0  0  0  0  0  0  0  0  0  0  0  0
  -10.5620    5.6840    9.7600 C   0  0  0  0  0  0  0  0  0  0  0  0
  -11.5770    5.6820   10.5960 N   0  0  0  0  0  0  0  0  0  0  0  0
  -12.4690    4.7490   10.1080 N   0  0  0  0  0  0  0  0  0  0  0  0
  -12.0160    4.1880    8.9920 N   0  0  0  0  0  0  0  0  0  0  0  0
  -10.8400    4.7900    8.7610 N   0  0  0  0  0  0  0  0  0  0  0  0
   -9.9950    4.4790    7.6090 C   0  0  0  0  0  0  0  0  0  0  0  0
   -8.6630    5.2070    7.7200 C   0  0  0  0  0  0  0  0  0  0  0  0
  -10.7490    4.8610    6.3730 C   0  0  0  0  0  0  0  0  0  0  0  0
  -11.0350    6.2020    6.1170 C   0  0  0  0  0  0  0  0  0  0  0  0
  -11.7370    6.5580    4.9650 C   0  0  0  0  0  0  0  0  0  0  0  0
  -12.1550    5.5730    4.0710 C   0  0  0  0  0  0  0  0  0  0  0  0
  -11.8700    4.2310    4.3270 C   0  0  0  0  0  0  0  0  0  0  0  0
  -11.1660    3.8760    5.4790 C   0  0  0  0  0  0  0  0  0  0  0  0
  -12.0160    7.8660    4.7150 O   0  0  0  0  0  0  0  0  0  0  0  0
   -6.8990    7.6510    9.7710 O   0  0  0  0  0  0  0  0  0  0  0  0
   -8.7838    3.9930    4.7085 C   0  0  0  0  0  0  0  0  0  0  0  0
   -9.8797    5.0089    4.5544 C   0  0  0  0  0  0  0  0  0  0  0  0
   -9.2938    6.3039    4.4206 O   0  0  0  0  0  0  0  0  0  0  0  0
   -9.5182    7.1658    3.3430 C   0  0  0  0  0  0  0  0  0  0  0  0
  -10.3631    6.8763    2.4521 O   0  0  0  0  0  0  0  0  0  0  0  0
   -8.7564    8.3731    3.2513 N   0  0  0  0  0  0  0  0  0  0  0  0
   -8.9239    9.3329    2.1560 C   0  0  0  0  0  0  0  0  0  0  0  0
  -10.1788   10.1794    2.3873 C   0  0  0  0  0  0  0  0  0  0  0  0
   -7.6864   10.2285    2.0429 C   0  0  0  0  0  0  0  0  0  0  0  0
   -8.4768    2.9323    3.8401 C   0  0  0  0  0  0  0  0  0  0  0  0
   -9.2124    2.4757    2.6165 C   0  0  0  0  0  0  0  0  0  0  0  0
  -10.1375    1.4484    2.9682 O   0  0  0  0  0  0  0  0  0  0  0  0
   -9.9439    0.0941    2.6698 C   0  0  0  0  0  0  0  0  0  0  0  0
   -8.8804   -0.2955    2.1114 O   0  0  0  0  0  0  0  0  0  0  0  0
  -10.9627   -0.8507    3.0203 N   0  0  0  0  0  0  0  0  0  0  0  0
  -10.8040   -2.2936    2.8090 C   0  0  0  0  0  0  0  0  0  0  0  0
  -11.8197   -3.0700    3.6535 C   0  0  0  0  0  0  0  0  0  0  0  0
  -10.9750   -2.6342    1.3248 C   0  0  0  0  0  0  0  0  0  0  0  0
   -7.3377    2.3556    4.3657 C   0  0  0  0  0  0  0  0  0  0  0  0
   -6.9311    3.0013    5.4332 N   0  0  0  0  0  0  0  0  0  0  0  0
   -5.7388    2.4520    6.0303 C   0  0  0  0  0  0  0  0  0  0  0  0
   -5.4038    1.2503    5.1091 C   0  0  0  0  0  0  0  0  0  0  0  0
   -6.4969    1.1985    4.0084 C   0  0  0  0  0  0  0  0  0  0  0  0
  1  3  4  0
  1 14  4  0
  1  2  1  0
  3  4  4  0
  4  5  4  0
  5  6  4  0
  5 22  1  0
  6  7  1  0
  6 14  4  0
  7  8  1  0
  8  9  4  0
  8 12  4  0
  9 10  4  0
 10 11  4  0
 11 12  4  0
 12 13  1  0
 13 14  1  0
 13 15  1  6
 15 16  4  0
 15 20  4  0
 16 17  4  0
 17 18  4  0
 17 21  1  0
 18 19  4  0
 19 20  4  0
 23 24  1  0
 24 25  1  0
 25 26  1  0
 26 27  2  0
 26 28  1  0
 28 29  1  0
 29 30  1  0
 29 31  1  0
 23 32  4  0
 32 33  1  0
 33 34  1  0
 34 35  1  0
 35 36  2  0
 35 37  1  0
 37 38  1  0
 38 39  1  0
 38 40  1  0
 32 41  4  0
 41 42  4  0
 42 43  1  0
 43 44  1  0
 44 45  1  0
 45 41  1  0
  2 23  4  0
  2 42  4  0
M  END
$$$$

     RDKit          3D

 42 48  0  0  0  0  0  0  0  0999 V2000
   -7.6410    4.9930    6.8080 C   0  0  0  0  0  0  0  0  0  1  0  0
   -7.7310    4.0530    5.7140 C   0  0  0  0  0  0  0  0  0  2  0  0
   -6.4520    5.6300    6.8680 N   0  0  0  0  0  0  0  0  0  0  0  0
   -6.2260    6.5240    7.8670 N   0  0  0  0  0  0  0  0  0  0  0  0
   -7.1930    6.7500    8.7820 C   0  0  0  0  0  0  0  0  0  0  0  0
   -8.4240    6.1170    8.7580 C   0  0  0  0  0  0  0  0  0  0  0  0
   -9.3950    6.3570    9.7450 N   0  0  0  0  0  0  0  0  0  0  0  0
  -10.5620    5.6840    9.7600 C   0  0  0  0  0  0  0  0  0  0  0  0
  -11.5770    5.6820   10.5960 N   0  0  0  0  0  0  0  0  0  0  0  0
  -12.4690    4.7490   10.1080 N   0  0  0  0  0  0  0  0  0  0  0  0
  -12.0160    4.1880    8.9920 N   0  0  0  0  0  0  0  0  0  0  0  0
  -10.8400    4.7900    8.7610 N   0  0  0  0  0  0  0  0  0  0  0  0
   -9.9950    4.4790    7.6090 C   0  0  0  0  0  0  0  0  0  0  0  0
   -8.6630    5.2070    7.7200 C   0  0  0  0  0  0  0  0  0  0  0  0
  -10.7490    4.8610    6.3730 C   0  0  0  0  0  0  0  0  0  0  0  0
  -11.0350    6.2020    6.1170 C   0  0  0  0  0  0  0  0  0  0  0  0
  -11.7370    6.5580    4.9650 C   0  0  0  0  0  0  0  0  0  0  0  0
  -12.1550    5.5730    4.0710 C   0  0  0  0  0  0  0  0  0  0  0  0
  -11.8700    4.2310    4.3270 C   0  0  0  0  0  0  0  0  0  0  0  0
  -11.1660    3.8760    5.4790 C   0  0  0  0  0  0  0  0  0  0  0  0
  -12.0160    7.8660    4.7150 O   0  0  0  0  0  0  0  0  0  0  0  0
   -6.8990    7.6510    9.7710 O   0  0  0  0  0  0  0  0  0  0  0  0
   -6.8099    3.1578    5.2986 N   0  0  0  0  0  0  0  0  0  0  0  0
   -7.2920    2.4378    4.2926 N   0  0  0  0  0  0  0  0  0  0  0  0
   -8.5537    2.8587    4.0791 C   0  0  0  0  0  0  0  0  0  0  0  0
   -9.6090    2.2306    2.7714 S   0  0  0  0  0  0  0  0  0  0  0  0
  -10.3777    0.9487    3.8201 C   0  0  0  0  0  0  0  0  0  0  0  0
   -9.4501   -0.2237    4.0005 C   0  0  0  0  0  0  0  0  0  0  0  0
   -8.9025   -0.5071    5.2637 C   0  0  0  0  0  0  0  0  0  0  0  0
   -8.0551   -1.6160    5.4520 C   0  0  0  0  0  0  0  0  0  0  0  0
   -7.5141   -1.9041    6.7552 N   0  0  0  0  0  0  0  0  0  0  0  0
   -6.7851   -2.9045    6.9378 O   0  0  0  0  0  0  0  0  0  0  0  0
   -7.8188   -1.0996    7.8338 O   0  0  0  0  0  0  0  0  0  0  0  0
   -7.7534   -2.4413    4.3530 C   0  0  0  0  0  0  0  0  0  0  0  0
   -8.2814   -2.1519    3.0885 C   0  0  0  0  0  0  0  0  0  0  0  0
   -9.1416   -1.0628    2.9171 C   0  0  0  0  0  0  0  0  0  0  0  0
   -9.6710   -0.8290    1.6445 O   0  0  0  0  0  0  0  0  0  0  0  0
   -9.4603   -1.7716    0.5894 C   0  0  0  0  0  0  0  0  0  0  0  0
   -8.1559   -2.3260    0.6746 O   0  0  0  0  0  0  0  0  0  0  0  0
   -8.0140   -3.0379    1.8942 C   0  0  0  0  0  0  0  0  0  0  0  0
   -8.8893    3.8386    4.9353 N   0  0  0  0  0  0  0  0  0  0  0  0
  -10.0635    4.6094    4.9219 N   0  0  0  0  0  0  0  0  0  0  0  0
  1  3  4  0
  1 14  4  0
  1  2  1  0
  3  4  4  0
  4  5  4  0
  5  6  4  0
  5 22  1  0
  6  7  1  0
  6 14  4  0
  7  8  1  0
  8  9  4  0
  8 12  4  0
  9 10  4  0
 10 11  4  0
 11 12  4  0
 12 13  1  0
 13 14  1  0
 13 15  1  6
 15 16  4  0
 15 20  4  0
 16 17  4  0
 17 18  4  0
 17 21  1  0
 18 19  4  0
 19 20  4  0
 23 24  4  0
 24 25  4  0
 25 26  1  0
 26 27  1  0
 27 28  1  0
 28 29  4  0
 29 30  4  0
 30 31  1  0
 31 32  2  0
 31 33  1  0
 30 34  4  0
 34 35  4  0
 35 36  4  0
 36 37  1  0
 37 38  1  0
 38 39  1  0
 39 40  1  0
 25 41  4  0
 41 42  1  0
 36 28  4  0
 40 35  1  0
  2 23  4  0
  2 41  4  0
M  CHG  2  31   1  33  -1
M  END
$$$$

     RDKit          3D

 42 48  0  0  0  0  0  0  0  0999 V2000
   -7.6410    4.9930    6.8080 C   0  0  0  0  0  0  0  0  0  1  0  0
   -7.7310    4.0530    5.7140 C   0  0  0  0  0  0  0  0  0  2  0  0
   -6.4520    5.6300    6.8680 N   0  0  0  0  0  0  0  0  0  0  0  0
   -6.2260    6.5240    7.8670 N   0  0  0  0  0  0  0  0  0  0  0  0
   -7.1930    6.7500    8.7820 C   0  0  0  0  0  0  0  0  0  0  0  0
   -8.4240    6.1170    8.7580 C   0  0  0  0  0  0  0  0  0  0  0  0
   -9.3950    6.3570    9.7450 N   0  0  0  0  0  0  0  0  0  0  0  0
  -10.5620    5.6840    9.7600 C   0  0  0  0  0  0  0  0  0  0  0  0
  -11.5770    5.6820   10.5960 N   0  0  0  0  0  0  0  0  0  0  0  0
  -12.4690    4.7490   10.1080 N   0  0  0  0  0  0  0  0  0  0  0  0
  -12.0160    4.1880    8.9920 N   0  0  0  0  0  0  0  0  0  0  0  0
  -10.8400    4.7900    8.7610 N   0  0  0  0  0  0  0  0  0  0  0  0
   -9.9950    4.4790    7.6090 C   0  0  0  0  0  0  0  0  0  0  0  0
   -8.6630    5.2070    7.7200 C   0  0  0  0  0  0  0  0  0  0  0  0
  -10.7490    4.8610    6.3730 C   0  0  0  0  0  0  0  0  0  0  0  0
  -11.0350    6.2020    6.1170 C   0  0  0  0  0  0  0  0  0  0  0  0
  -11.7370    6.5580    4.9650 C   0  0  0  0  0  0  0  0  0  0  0  0
  -12.1550    5.5730    4.0710 C   0  0  0  0  0  0  0  0  0  0  0  0
  -11.8700    4.2310    4.3270 C   0  0  0  0  0  0  0  0  0  0  0  0
  -11.1660    3.8760    5.4790 C   0  0  0  0  0  0  0  0  0  0  0  0
  -12.0160    7.8660    4.7150 O   0  0  0  0  0  0  0  0  0  0  0  0
   -6.8990    7.6510    9.7710 O   0  0  0  0  0  0  0  0  0  0  0  0
   -6.7888    3.2010    5.2607 N   0  0  0  0  0  0  0  0  0  0  0  0
   -7.2817    2.4479    4.2852 N   0  0  0  0  0  0  0  0  0  0  0  0
   -8.5705    2.8042    4.1278 C   0  0  0  0  0  0  0  0  0  0  0  0
   -9.6523    2.1009    2.8833 S   0  0  0  0  0  0  0  0  0  0  0  0
   -9.2213    3.3559    1.6334 C   0  0  0  0  0  0  0  0  0  0  0  0
   -9.9884    3.0924    0.3656 C   0  0  0  0  0  0  0  0  0  0  0  0
   -9.6483    1.9855   -0.4312 C   0  0  0  0  0  0  0  0  0  0  0  0
  -10.3410    1.7141   -1.6266 C   0  0  0  0  0  0  0  0  0  0  0  0
   -9.9816    0.5838   -2.4430 N   0  0  0  0  0  0  0  0  0  0  0  0
   -9.0163   -0.1451   -2.1337 O   0  0  0  0  0  0  0  0  0  0  0  0
  -10.6890    0.2950   -3.5875 O   0  0  0  0  0  0  0  0  0  0  0  0
  -11.3902    2.5645   -2.0156 C   0  0  0  0  0  0  0  0  0  0  0  0
  -11.7456    3.6585   -1.2177 C   0  0  0  0  0  0  0  0  0  0  0  0
  -11.0380    3.9341   -0.0437 C   0  0  0  0  0  0  0  0  0  0  0  0
  -11.4179    5.0462    0.7114 O   0  0  0  0  0  0  0  0  0  0  0  0
  -12.3923    5.9610    0.2094 C   0  0  0  0  0  0  0  0  0  0  0  0
  -13.4051    5.2649   -0.4948 O   0  0  0  0  0  0  0  0  0  0  0  0
  -12.8448    4.6082   -1.6212 C   0  0  0  0  0  0  0  0  0  0  0  0
   -8.9152    3.7737    4.9917 N   0  0  0  0  0  0  0  0  0  0  0  0
  -10.1155    4.5038    5.0063 N   0  0  0  0  0  0  0  0  0  0  0  0
  1  3  4  0
  1 14  4  0
  1  2  1  0
  3  4  4  0
  4  5  4  0
  5  6  4  0
  5 22  1  0
  6  7  1  0
  6 14  4  0
  7  8  1  0
  8  9  4  0
  8 12  4  0
  9 10  4  0
 10 11  4  0
 11 12  4  0
 12 13  1  0
 13 14  1  0
 13 15  1  6
 15 16  4  0
 15 20  4  0
 16 17  4  0
 17 18  4  0
 17 21  1  0
 18 19  4  0
 19 20  4  0
 23 24  4  0
 24 25  4  0
 25 26  1  0
 26 27  1  0
 27 28  1  0
 28 29  4  0
 29 30  4  0
 30 31  1  0
 31 32  2  0
 31 33  1  0
 30 34  4  0
 34 35  4  0
 35 36  4  0
 36 37  1  0
 37 38  1  0
 38 39  1  0
 39 40  1  0
 25 41  4  0
 41 42  1  0
 36 28  4  0
 40 35  1  0
  2 23  4  0
  2 41  4  0
M  CHG  2  31   1  33  -1
M  END
$$$$

     RDKit          3D

 50 58  0  0  0  0  0  0  0  0999 V2000
   -7.6410    4.9930    6.8080 C   0  0  0  0  0  0  0  0  0  1  0  0
   -7.7310    4.0530    5.7140 C   0  0  0  0  0  0  0  0  0  2  0  0
   -6.4520    5.6300    6.8680 N   0  0  0  0  0  0  0  0  0  0  0  0
   -6.2260    6.5240    7.8670 N   0  0  0  0  0  0  0  0  0  0  0  0
   -7.1930    6.7500    8.7820 C   0  0  0  0  0  0  0  0  0  0  0  0
   -8.4240    6.1170    8.7580 C   0  0  0  0  0  0  0  0  0  0  0  0
   -9.3950    6.3570    9.7450 N   0  0  0  0  0  0  0  0  0  0  0  0
  -10.5620    5.6840    9.7600 C   0  0  0  0  0  0  0  0  0  0  0  0
  -11.5770    5.6820   10.5960 N   0  0  0  0  0  0  0  0  0  0  0  0
  -12.4690    4.7490   10.1080 N   0  0  0  0  0  0  0  0  0  0  0  0
  -12.0160    4.1880    8.9920 N   0  0  0  0  0  0  0  0  0  0  0  0
  -10.8400    4.7900    8.7610 N   0  0  0  0  0  0  0  0  0  0  0  0
   -9.9950    4.4790    7.6090 C   0  0  0  0  0  0  0  0  0  0  0  0
   -8.6630    5.2070    7.7200 C   0  0  0  0  0  0  0  0  0  0  0  0
  -10.7490    4.8610    6.3730 C   0  0  0  0  0  0  0  0  0  0  0  0
  -11.0350    6.2020    6.1170 C   0  0  0  0  0  0  0  0  0  0  0  0
  -11.7370    6.5580    4.9650 C   0  0  0  0  0  0  0  0  0  0  0  0
  -12.1550    5.5730    4.0710 C   0  0  0  0  0  0  0  0  0  0  0  0
  -11.8700    4.2310    4.3270 C   0  0  0  0  0  0  0  0  0  0  0  0
  -11.1660    3.8760    5.4790 C   0  0  0  0  0  0  0  0  0  0  0  0
  -12.0160    7.8660    4.7150 O   0  0  0  0  0  0  0  0  0  0  0  0
   -6.8990    7.6510    9.7710 O   0  0  0  0  0  0  0  0  0  0  0  0
   -6.7836    3.0473    5.4350 C   0  0  0  0  0  0  0  0  0  0  0  0
   -6.9234    2.0984    4.4047 C   0  0  0  0  0  0  0  0  0  1  0  0
   -5.8573    1.0948    4.1426 C   0  0  0  0  0  0  0  0  0  2  0  0
   -5.5318    0.7282    2.8234 C   0  0  0  0  0  0  0  0  0  0  0  0
   -4.5381   -0.2212    2.5734 C   0  0  0  0  0  0  0  0  0  0  0  0
   -3.8422   -0.8157    3.6353 C   0  0  0  0  0  0  0  0  0  1  0  0
   -2.7855   -1.8151    3.3669 C   0  0  0  0  0  0  0  0  0  2  0  0
   -1.6559   -1.5652    2.5668 C   0  0  0  0  0  0  0  0  0  0  0  0
   -1.3332   -0.2840    1.8434 C   0  0  0  0  0  0  0  0  0  0  0  0
    0.1334    0.0455    1.9398 C   0  0  0  0  0  0  0  0  0  0  0  0
    0.6985    0.3860    3.1811 C   0  0  0  0  0  0  0  0  0  0  0  0
    2.0592    0.6932    3.2755 C   0  0  0  0  0  0  0  0  0  0  0  0
    2.8662    0.6592    2.1349 C   0  0  0  0  0  0  0  0  0  0  0  0
    2.3117    0.3255    0.8959 C   0  0  0  0  0  0  0  0  0  0  0  0
    0.9501    0.0185    0.7965 C   0  0  0  0  0  0  0  0  0  0  0  0
   -0.7198   -2.9735    2.4713 S   0  0  0  0  0  0  0  0  0  0  0  0
   -1.7144   -3.8927    3.4570 C   0  0  0  0  0  0  0  0  0  0  0  0
   -1.5507   -5.2244    3.8309 C   0  0  0  0  0  0  0  0  0  0  0  0
   -2.5291   -5.8086    4.6488 C   0  0  0  0  0  0  0  0  0  0  0  0
   -3.6491   -5.0629    5.0600 C   0  0  0  0  0  0  0  0  0  0  0  0
   -3.7950   -3.7217    4.6670 C   0  0  0  0  0  0  0  0  0  0  0  0
   -2.8029   -3.1331    3.8687 C   0  0  0  0  0  0  0  0  0  0  0  0
   -4.1546   -0.4483    4.9528 C   0  0  0  0  0  0  0  0  0  0  0  0
   -5.1553    0.4951    5.2049 C   0  0  0  0  0  0  0  0  0  0  0  0
   -8.0918    2.1122    3.6245 C   0  0  0  0  0  0  0  0  0  0  0  0
   -9.0883    3.0605    3.8547 C   0  0  0  0  0  0  0  0  0  0  0  0
   -8.9424    4.0123    4.8712 C   0  0  0  0  0  0  0  0  0  0  0  0
   -9.9271    4.9825    5.0562 O   0  0  0  0  0  0  0  0  0  0  0  0
  1  3  4  0
  1 14  4  0
  1  2  1  0
  3  4  4  0
  4  5  4  0
  5  6  4  0
  5 22  1  0
  6  7  1  0
  6 14  4  0
  7  8  1  0
  8  9  4  0
  8 12  4  0
  9 10  4  0
 10 11  4  0
 11 12  4  0
 12 13  1  0
 13 14  1  0
 13 15  1  6
 15 16  4  0
 15 20  4  0
 16 17  4  0
 17 18  4  0
 17 21  1  0
 18 19  4  0
 19 20  4  0
 23 24  4  0
 24 25  1  0
 25 26  4  0
 26 27  4  0
 27 28  4  0
 28 29  1  0
 29 30  4  0
 30 31  1  0
 31 32  1  0
 32 33  4  0
 33 34  4  0
 34 35  4  0
 35 36  4  0
 36 37  4  0
 30 38  4  0
 38 39  4  0
 39 40  4  0
 40 41  4  0
 41 42  4  0
 42 43  4  0
 43 44  4  0
 28 45  4  0
 45 46  4  0
 24 47  4  0
 47 48  4  0
 48 49  4  0
 49 50  1  0
 46 25  4  0
 44 29  4  0
 37 32  4  0
 44 39  4  0
  2 23  4  0
  2 49  4  0
M  END
$$$$

     RDKit          3D

 50 58  0  0  0  0  0  0  0  0999 V2000
   -7.6410    4.9930    6.8080 C   0  0  0  0  0  0  0  0  0  1  0  0
   -7.7310    4.0530    5.7140 C   0  0  0  0  0  0  0  0  0  2  0  0
   -6.4520    5.6300    6.8680 N   0  0  0  0  0  0  0  0  0  0  0  0
   -6.2260    6.5240    7.8670 N   0  0  0  0  0  0  0  0  0  0  0  0
   -7.1930    6.7500    8.7820 C   0  0  0  0  0  0  0  0  0  0  0  0
   -8.4240    6.1170    8.7580 C   0  0  0  0  0  0  0  0  0  0  0  0
   -9.3950    6.3570    9.7450 N   0  0  0  0  0  0  0  0  0  0  0  0
  -10.5620    5.6840    9.7600 C   0  0  0  0  0  0  0  0  0  0  0  0
  -11.5770    5.6820   10.5960 N   0  0  0  0  0  0  0  0  0  0  0  0
  -12.4690    4.7490   10.1080 N   0  0  0  0  0  0  0  0  0  0  0  0
  -12.0160    4.1880    8.9920 N   0  0  0  0  0  0  0  0  0  0  0  0
  -10.8400    4.7900    8.7610 N   0  0  0  0  0  0  0  0  0  0  0  0
   -9.9950    4.4790    7.6090 C   0  0  0  0  0  0  0  0  0  0  0  0
   -8.6630    5.2070    7.7200 C   0  0  0  0  0  0  0  0  0  0  0  0
  -10.7490    4.8610    6.3730 C   0  0  0  0  0  0  0  0  0  0  0  0
  -11.0350    6.2020    6.1170 C   0  0  0  0  0  0  0  0  0  0  0  0
  -11.7370    6.5580    4.9650 C   0  0  0  0  0  0  0  0  0  0  0  0
  -12.1550    5.5730    4.0710 C   0  0  0  0  0  0  0  0  0  0  0  0
  -11.8700    4.2310    4.3270 C   0  0  0  0  0  0  0  0  0  0  0  0
  -11.1660    3.8760    5.4790 C   0  0  0  0  0  0  0  0  0  0  0  0
  -12.0160    7.8660    4.7150 O   0  0  0  0  0  0  0  0  0  0  0  0
   -6.8990    7.6510    9.7710 O   0  0  0  0  0  0  0  0  0  0  0  0
   -6.8691    2.9443    5.5647 C   0  0  0  0  0  0  0  0  0  0  0  0
   -7.0740    1.9217    4.6258 C   0  0  0  0  0  0  0  0  0  1  0  0
   -6.1209    0.7985    4.5248 C   0  0  0  0  0  0  0  0  0  2  0  0
   -6.5733   -0.5249    4.6337 C   0  0  0  0  0  0  0  0  0  0  0  0
   -5.6719   -1.5888    4.5356 C   0  0  0  0  0  0  0  0  0  0  0  0
   -4.3094   -1.3471    4.2925 C   0  0  0  0  0  0  0  0  0  1  0  0
   -3.3604   -2.4811    4.1856 C   0  0  0  0  0  0  0  0  0  2  0  0
   -2.2113   -2.6150    4.9862 C   0  0  0  0  0  0  0  0  0  0  0  0
   -1.6972   -1.5994    5.9757 C   0  0  0  0  0  0  0  0  0  0  0  0
   -0.7730   -2.2077    6.9990 C   0  0  0  0  0  0  0  0  0  0  0  0
   -1.2874   -2.7480    8.1902 C   0  0  0  0  0  0  0  0  0  0  0  0
   -0.4241   -3.2947    9.1445 C   0  0  0  0  0  0  0  0  0  0  0  0
    0.9544   -3.3326    8.9061 C   0  0  0  0  0  0  0  0  0  0  0  0
    1.4704   -2.8203    7.7128 C   0  0  0  0  0  0  0  0  0  0  0  0
    0.6117   -2.2547    6.7635 C   0  0  0  0  0  0  0  0  0  0  0  0
   -1.4176   -4.0532    4.5689 S   0  0  0  0  0  0  0  0  0  0  0  0
   -2.5282   -4.5249    3.4090 C   0  0  0  0  0  0  0  0  0  0  0  0
   -2.5005   -5.6701    2.6172 C   0  0  0  0  0  0  0  0  0  0  0  0
   -3.5138   -5.8438    1.6657 C   0  0  0  0  0  0  0  0  0  0  0  0
   -4.5275   -4.8783    1.5236 C   0  0  0  0  0  0  0  0  0  0  0  0
   -4.5374   -3.7320    2.3370 C   0  0  0  0  0  0  0  0  0  0  0  0
   -3.5270   -3.5684    3.2982 C   0  0  0  0  0  0  0  0  0  0  0  0
   -3.8593   -0.0227    4.1702 C   0  0  0  0  0  0  0  0  0  0  0  0
   -4.7571    1.0430    4.2999 C   0  0  0  0  0  0  0  0  0  0  0  0
   -8.2017    1.9646    3.7929 C   0  0  0  0  0  0  0  0  0  0  0  0
   -9.0984    3.0310    3.8750 C   0  0  0  0  0  0  0  0  0  0  0  0
   -8.8974    4.0577    4.8042 C   0  0  0  0  0  0  0  0  0  0  0  0
   -9.7930    5.1307    4.8059 O   0  0  0  0  0  0  0  0  0  0  0  0
  1  3  4  0
  1 14  4  0
  1  2  1  0
  3  4  4  0
  4  5  4  0
  5  6  4  0
  5 22  1  0
  6  7  1  0
  6 14  4  0
  7  8  1  0
  8  9  4  0
  8 12  4  0
  9 10  4  0
 10 11  4  0
 11 12  4  0
 12 13  1  0
 13 14  1  0
 13 15  1  6
 15 16  4  0
 15 20  4  0
 16 17  4  0
 17 18  4  0
 17 21  1  0
 18 19  4  0
 19 20  4  0
 23 24  4  0
 24 25  1  0
 25 26  4  0
 26 27  4  0
 27 28  4  0
 28 29  1  0
 29 30  4  0
 30 31  1  0
 31 32  1  0
 32 33  4  0
 33 34  4  0
 34 35  4  0
 35 36  4  0
 36 37  4  0
 30 38  4  0
 38 39  4  0
 39 40  4  0
 40 41  4  0
 41 42  4  0
 42 43  4  0
 43 44  4  0
 28 45  4  0
 45 46  4  0
 24 47  4  0
 47 48  4  0
 48 49  4  0
 49 50  1  0
 46 25  4  0
 44 29  4  0
 37 32  4  0
 44 39  4  0
  2 23  4  0
  2 49  4  0
M  END
$$$$

     RDKit          3D

 42 47  0  0  0  0  0  0  0  0999 V2000
   -7.6410    4.9930    6.8080 C   0  0  0  0  0  0  0  0  0  1  0  0
   -7.7310    4.0530    5.7140 C   0  0  0  0  0  0  0  0  0  2  0  0
   -6.4520    5.6300    6.8680 N   0  0  0  0  0  0  0  0  0  0  0  0
   -6.2260    6.5240    7.8670 N   0  0  0  0  0  0  0  0  0  0  0  0
   -7.1930    6.7500    8.7820 C   0  0  0  0  0  0  0  0  0  0  0  0
   -8.4240    6.1170    8.7580 C   0  0  0  0  0  0  0  0  0  0  0  0
   -9.3950    6.3570    9.7450 N   0  0  0  0  0  0  0  0  0  0  0  0
  -10.5620    5.6840    9.7600 C   0  0  0  0  0  0  0  0  0  0  0  0
  -11.5770    5.6820   10.5960 N   0  0  0  0  0  0  0  0  0  0  0  0
  -12.4690    4.7490   10.1080 N   0  0  0  0  0  0  0  0  0  0  0  0
  -12.0160    4.1880    8.9920 N   0  0  0  0  0  0  0  0  0  0  0  0
  -10.8400    4.7900    8.7610 N   0  0  0  0  0  0  0  0  0  0  0  0
   -9.9950    4.4790    7.6090 C   0  0  0  0  0  0  0  0  0  0  0  0
   -8.6630    5.2070    7.7200 C   0  0  0  0  0  0  0  0  0  0  0  0
  -10.7490    4.8610    6.3730 C   0  0  0  0  0  0  0  0  0  0  0  0
  -11.0350    6.2020    6.1170 C   0  0  0  0  0  0  0  0  0  0  0  0
  -11.7370    6.5580    4.9650 C   0  0  0  0  0  0  0  0  0  0  0  0
  -12.1550    5.5730    4.0710 C   0  0  0  0  0  0  0  0  0  0  0  0
  -11.8700    4.2310    4.3270 C   0  0  0  0  0  0  0  0  0  0  0  0
  -11.1660    3.8760    5.4790 C   0  0  0  0  0  0  0  0  0  0  0  0
  -12.0160    7.8660    4.7150 O   0  0  0  0  0  0  0  0  0  0  0  0
   -6.8990    7.6510    9.7710 O   0  0  0  0  0  0  0  0  0  0  0  0
   -6.8603    3.0672    5.4061 N   0  0  0  0  0  0  0  0  0  0  0  0
   -7.3005    2.3910    4.3559 N   0  0  0  0  0  0  0  0  0  0  0  0
   -8.4830    2.9322    4.0114 C   0  0  0  0  0  0  0  0  0  0  0  0
   -9.4371    2.3883    2.5903 S   0  0  0  0  0  0  0  0  0  0  0  0
  -10.4568    1.2103    3.5428 C   0  0  0  0  0  0  0  0  0  0  0  0
   -9.6367    0.0464    4.0097 C   0  0  0  0  0  0  0  0  0  0  0  0
   -9.4614   -0.1266    5.2459 O   0  0  0  0  0  0  0  0  0  0  0  0
   -9.0310   -0.8373    3.0521 N   0  0  0  0  0  0  0  0  0  0  0  0
   -8.3307   -2.0433    3.4007 C   0  0  0  0  0  0  0  0  0  0  0  0
   -8.7703   -2.8709    4.4507 C   0  0  0  0  0  0  0  0  0  0  0  0
   -8.0813   -4.0492    4.7551 C   0  0  0  0  0  0  0  0  0  0  0  0
   -6.9586   -4.4177    4.0097 C   0  0  0  0  0  0  0  0  0  0  0  0
   -6.5279   -3.6130    2.9514 C   0  0  0  0  0  0  0  0  0  0  0  0
   -5.4421   -3.9743    2.2240 F   0  0  0  0  0  0  0  0  0  0  0  0
   -7.2161   -2.4352    2.6423 C   0  0  0  0  0  0  0  0  0  0  0  0
   -8.8265    3.9477    4.8297 N   0  0  0  0  0  0  0  0  0  0  0  0
   -9.9200    4.9043    4.6360 C   0  0  0  0  0  0  0  0  0  0  0  0
   -9.4980    5.9814    3.6881 C   0  0  0  0  0  0  0  0  0  0  0  0
  -10.0794    6.1149    2.5794 O   0  0  0  0  0  0  0  0  0  0  0  0
   -8.4628    6.8418    4.0308 O   0  0  0  0  0  0  0  0  0  0  0  0
  1  3  4  0
  1 14  4  0
  1  2  1  0
  3  4  4  0
  4  5  4  0
  5  6  4  0
  5 22  1  0
  6  7  1  0
  6 14  4  0
  7  8  1  0
  8  9  4  0
  8 12  4  0
  9 10  4  0
 10 11  4  0
 11 12  4  0
 12 13  1  0
 13 14  1  0
 13 15  1  6
 15 16  4  0
 15 20  4  0
 16 17  4  0
 17 18  4  0
 17 21  1  0
 18 19  4  0
 19 20  4  0
 23 24  4  0
 24 25  4  0
 25 26  1  0
 26 27  1  0
 27 28  1  0
 28 29  2  0
 28 30  1  0
 30 31  1  0
 31 32  4  0
 32 33  4  0
 33 34  4  0
 34 35  4  0
 35 36  1  0
 35 37  4  0
 25 38  4  0
 38 39  1  0
 39 40  1  0
 40 41  2  0
 40 42  1  0
 37 31  4  0
  2 23  4  0
  2 38  4  0
M  CHG  1  42  -1
M  END
$$$$

     RDKit          3D

 42 47  0  0  0  0  0  0  0  0999 V2000
   -7.6410    4.9930    6.8080 C   0  0  0  0  0  0  0  0  0  1  0  0
   -7.7310    4.0530    5.7140 C   0  0  0  0  0  0  0  0  0  2  0  0
   -6.4520    5.6300    6.8680 N   0  0  0  0  0  0  0  0  0  0  0  0
   -6.2260    6.5240    7.8670 N   0  0  0  0  0  0  0  0  0  0  0  0
   -7.1930    6.7500    8.7820 C   0  0  0  0  0  0  0  0  0  0  0  0
   -8.4240    6.1170    8.7580 C   0  0  0  0  0  0  0  0  0  0  0  0
   -9.3950    6.3570    9.7450 N   0  0  0  0  0  0  0  0  0  0  0  0
  -10.5620    5.6840    9.7600 C   0  0  0  0  0  0  0  0  0  0  0  0
  -11.5770    5.6820   10.5960 N   0  0  0  0  0  0  0  0  0  0  0  0
  -12.4690    4.7490   10.1080 N   0  0  0  0  0  0  0  0  0  0  0  0
  -12.0160    4.1880    8.9920 N   0  0  0  0  0  0  0  0  0  0  0  0
  -10.8400    4.7900    8.7610 N   0  0  0  0  0  0  0  0  0  0  0  0
   -9.9950    4.4790    7.6090 C   0  0  0  0  0  0  0  0  0  0  0  0
   -8.6630    5.2070    7.7200 C   0  0  0  0  0  0  0  0  0  0  0  0
  -10.7490    4.8610    6.3730 C   0  0  0  0  0  0  0  0  0  0  0  0
  -11.0350    6.2020    6.1170 C   0  0  0  0  0  0  0  0  0  0  0  0
  -11.7370    6.5580    4.9650 C   0  0  0  0  0  0  0  0  0  0  0  0
  -12.1550    5.5730    4.0710 C   0  0  0  0  0  0  0  0  0  0  0  0
  -11.8700    4.2310    4.3270 C   0  0  0  0  0  0  0  0  0  0  0  0
  -11.1660    3.8760    5.4790 C   0  0  0  0  0  0  0  0  0  0  0  0
  -12.0160    7.8660    4.7150 O   0  0  0  0  0  0  0  0  0  0  0  0
   -6.8990    7.6510    9.7710 O   0  0  0  0  0  0  0  0  0  0  0  0
   -6.8823    3.0376    5.4378 N   0  0  0  0  0  0  0  0  0  0  0  0
   -7.3113    2.3731    4.3757 N   0  0  0  0  0  0  0  0  0  0  0  0
   -8.4598    2.9566    3.9869 C   0  0  0  0  0  0  0  0  0  0  0  0
   -9.3946    2.4248    2.5482 S   0  0  0  0  0  0  0  0  0  0  0  0
   -8.4115    3.3990    1.3555 C   0  0  0  0  0  0  0  0  0  0  0  0
   -7.0481    2.7937    1.1574 C   0  0  0  0  0  0  0  0  0  0  0  0
   -6.0319    3.4816    1.4433 O   0  0  0  0  0  0  0  0  0  0  0  0
   -6.8688    1.4363    0.7217 N   0  0  0  0  0  0  0  0  0  0  0  0
   -7.8835    0.6582    0.0726 C   0  0  0  0  0  0  0  0  0  0  0  0
   -8.5666    1.1549   -1.0496 C   0  0  0  0  0  0  0  0  0  0  0  0
   -9.5394    0.3752   -1.6827 C   0  0  0  0  0  0  0  0  0  0  0  0
   -9.8237   -0.9094   -1.2105 C   0  0  0  0  0  0  0  0  0  0  0  0
   -9.1279   -1.4199   -0.1106 C   0  0  0  0  0  0  0  0  0  0  0  0
   -9.3966   -2.6698    0.3406 F   0  0  0  0  0  0  0  0  0  0  0  0
   -8.1534   -0.6421    0.5234 C   0  0  0  0  0  0  0  0  0  0  0  0
   -8.7981    3.9821    4.7956 N   0  0  0  0  0  0  0  0  0  0  0  0
   -9.8919    4.9414    4.6107 C   0  0  0  0  0  0  0  0  0  0  0  0
   -9.4292    6.1131    3.8036 C   0  0  0  0  0  0  0  0  0  0  0  0
   -9.9875    6.3890    2.7094 O   0  0  0  0  0  0  0  0  0  0  0  0
   -8.3913    6.9123    4.2658 O   0  0  0  0  0  0  0  0  0  0  0  0
  1  3  4  0
  1 14  4  0
  1  2  1  0
  3  4  4  0
  4  5  4  0
  5  6  4  0
  5 22  1  0
  6  7  1  0
  6 14  4  0
  7  8  1  0
  8  9  4  0
  8 12  4  0
  9 10  4  0
 10 11  4  0
 11 12  4  0
 12 13  1  0
 13 14  1  0
 13 15  1  6
 15 16  4  0
 15 20  4  0
 16 17  4  0
 17 18  4  0
 17 21  1  0
 18 19  4  0
 19 20  4  0
 23 24  4  0
 24 25  4  0
 25 26  1  0
 26 27  1  0
 27 28  1  0
 28 29  2  0
 28 30  1  0
 30 31  1  0
 31 32  4  0
 32 33  4  0
 33 34  4  0
 34 35  4  0
 35 36  1  0
 35 37  4  0
 25 38  4  0
 38 39  1  0
 39 40  1  0
 40 41  2  0
 40 42  1  0
 37 31  4  0
  2 23  4  0
  2 38  4  0
M  CHG  1  42  -1
M  END
$$$$

     RDKit          3D

 43 48  0  0  0  0  0  0  0  0999 V2000
   -7.6410    4.9930    6.8080 C   0  0  0  0  0  0  0  0  0  1  0  0
   -7.7310    4.0530    5.7140 C   0  0  0  0  0  0  0  0  0  2  0  0
   -6.4520    5.6300    6.8680 N   0  0  0  0  0  0  0  0  0  0  0  0
   -6.2260    6.5240    7.8670 N   0  0  0  0  0  0  0  0  0  0  0  0
   -7.1930    6.7500    8.7820 C   0  0  0  0  0  0  0  0  0  0  0  0
   -8.4240    6.1170    8.7580 C   0  0  0  0  0  0  0  0  0  0  0  0
   -9.3950    6.3570    9.7450 N   0  0  0  0  0  0  0  0  0  0  0  0
  -10.5620    5.6840    9.7600 C   0  0  0  0  0  0  0  0  0  0  0  0
  -11.5770    5.6820   10.5960 N   0  0  0  0  0  0  0  0  0  0  0  0
  -12.4690    4.7490   10.1080 N   0  0  0  0  0  0  0  0  0  0  0  0
  -12.0160    4.1880    8.9920 N   0  0  0  0  0  0  0  0  0  0  0  0
  -10.8400    4.7900    8.7610 N   0  0  0  0  0  0  0  0  0  0  0  0
   -9.9950    4.4790    7.6090 C   0  0  0  0  0  0  0  0  0  0  0  0
   -8.6630    5.2070    7.7200 C   0  0  0  0  0  0  0  0  0  0  0  0
  -10.7490    4.8610    6.3730 C   0  0  0  0  0  0  0  0  0  0  0  0
  -11.0350    6.2020    6.1170 C   0  0  0  0  0  0  0  0  0  0  0  0
  -11.7370    6.5580    4.9650 C   0  0  0  0  0  0  0  0  0  0  0  0
  -12.1550    5.5730    4.0710 C   0  0  0  0  0  0  0  0  0  0  0  0
  -11.8700    4.2310    4.3270 C   0  0  0  0  0  0  0  0  0  0  0  0
  -11.1660    3.8760    5.4790 C   0  0  0  0  0  0  0  0  0  0  0  0
  -12.0160    7.8660    4.7150 O   0  0  0  0  0  0  0  0  0  0  0  0
   -6.8990    7.6510    9.7710 O   0  0  0  0  0  0  0  0  0  0  0  0
   -6.7914    3.1824    5.2925 N   0  0  0  0  0  0  0  0  0  0  0  0
   -7.2675    2.4420    4.3027 N   0  0  0  0  0  0  0  0  0  0  0  0
   -8.5388    2.8315    4.0999 C   0  0  0  0  0  0  0  0  0  0  0  0
   -9.6059    2.1057    2.8514 S   0  0  0  0  0  0  0  0  0  0  0  0
   -9.1339    3.2902    1.5434 C   0  0  0  0  0  0  0  0  0  0  0  0
   -7.7723    2.9657    0.9927 C   0  0  0  0  0  0  0  0  0  0  0  0
   -6.8233    3.7558    1.2501 O   0  0  0  0  0  0  0  0  0  0  0  0
   -7.5302    1.7924    0.1783 N   0  0  0  0  0  0  0  0  0  0  0  0
   -8.6398    1.0492   -0.4426 C   0  0  0  0  0  0  0  0  0  0  0  0
   -9.2314    1.7964   -1.6032 C   0  0  0  0  0  0  0  0  0  0  0  0
   -8.7134    2.9196   -2.2238 C   0  0  0  0  0  0  0  0  0  0  0  0
   -9.5990    3.2290   -3.2329 C   0  0  0  0  0  0  0  0  0  0  0  0
  -10.5974    2.2789   -3.1708 C   0  0  0  0  0  0  0  0  0  0  0  0
  -10.3493    1.4394   -2.1922 O   0  0  0  0  0  0  0  0  0  0  0  0
   -6.1488    1.3741   -0.1113 C   0  0  0  0  0  0  0  0  0  0  0  0
   -5.5556    0.5898    1.0594 C   0  0  0  0  0  0  0  0  0  0  0  0
   -4.3066    0.1127    0.7066 F   0  0  0  0  0  0  0  0  0  0  0  0
   -6.3725   -0.4810    1.3752 F   0  0  0  0  0  0  0  0  0  0  0  0
   -5.4238    1.4049    2.1679 F   0  0  0  0  0  0  0  0  0  0  0  0
   -8.8963    3.8202    4.9428 N   0  0  0  0  0  0  0  0  0  0  0  0
  -10.1827    4.5122    5.0104 C   0  0  0  0  0  0  0  0  0  0  0  0
  1  3  4  0
  1 14  4  0
  1  2  1  0
  3  4  4  0
  4  5  4  0
  5  6  4  0
  5 22  1  0
  6  7  1  0
  6 14  4  0
  7  8  1  0
  8  9  4  0
  8 12  4  0
  9 10  4  0
 10 11  4  0
 11 12  4  0
 12 13  1  0
 13 14  1  0
 13 15  1  6
 15 16  4  0
 15 20  4  0
 16 17  4  0
 17 18  4  0
 17 21  1  0
 18 19  4  0
 19 20  4  0
 23 24  4  0
 24 25  4  0
 25 26  1  0
 26 27  1  0
 27 28  1  0
 28 29  2  0
 28 30  1  0
 30 31  1  0
 31 32  1  0
 32 33  4  0
 33 34  4  0
 34 35  4  0
 35 36  4  0
 30 37  1  0
 37 38  1  0
 38 39  1  0
 38 40  1  0
 38 41  1  0
 25 42  4  0
 42 43  1  0
 36 32  4  0
  2 23  4  0
  2 42  4  0
M  END
$$$$

     RDKit          3D

 43 48  0  0  0  0  0  0  0  0999 V2000
   -7.6410    4.9930    6.8080 C   0  0  0  0  0  0  0  0  0  1  0  0
   -7.7310    4.0530    5.7140 C   0  0  0  0  0  0  0  0  0  2  0  0
   -6.4520    5.6300    6.8680 N   0  0  0  0  0  0  0  0  0  0  0  0
   -6.2260    6.5240    7.8670 N   0  0  0  0  0  0  0  0  0  0  0  0
   -7.1930    6.7500    8.7820 C   0  0  0  0  0  0  0  0  0  0  0  0
   -8.4240    6.1170    8.7580 C   0  0  0  0  0  0  0  0  0  0  0  0
   -9.3950    6.3570    9.7450 N   0  0  0  0  0  0  0  0  0  0  0  0
  -10.5620    5.6840    9.7600 C   0  0  0  0  0  0  0  0  0  0  0  0
  -11.5770    5.6820   10.5960 N   0  0  0  0  0  0  0  0  0  0  0  0
  -12.4690    4.7490   10.1080 N   0  0  0  0  0  0  0  0  0  0  0  0
  -12.0160    4.1880    8.9920 N   0  0  0  0  0  0  0  0  0  0  0  0
  -10.8400    4.7900    8.7610 N   0  0  0  0  0  0  0  0  0  0  0  0
   -9.9950    4.4790    7.6090 C   0  0  0  0  0  0  0  0  0  0  0  0
   -8.6630    5.2070    7.7200 C   0  0  0  0  0  0  0  0  0  0  0  0
  -10.7490    4.8610    6.3730 C   0  0  0  0  0  0  0  0  0  0  0  0
  -11.0350    6.2020    6.1170 C   0  0  0  0  0  0  0  0  0  0  0  0
  -11.7370    6.5580    4.9650 C   0  0  0  0  0  0  0  0  0  0  0  0
  -12.1550    5.5730    4.0710 C   0  0  0  0  0  0  0  0  0  0  0  0
  -11.8700    4.2310    4.3270 C   0  0  0  0  0  0  0  0  0  0  0  0
  -11.1660    3.8760    5.4790 C   0  0  0  0  0  0  0  0  0  0  0  0
  -12.0160    7.8660    4.7150 O   0  0  0  0  0  0  0  0  0  0  0  0
   -6.8990    7.6510    9.7710 O   0  0  0  0  0  0  0  0  0  0  0  0
   -6.7894    3.1863    5.2884 N   0  0  0  0  0  0  0  0  0  0  0  0
   -7.2664    2.4428    4.3011 N   0  0  0  0  0  0  0  0  0  0  0  0
   -8.5412    2.8256    4.1053 C   0  0  0  0  0  0  0  0  0  0  0  0
   -9.6089    2.0951    2.8625 S   0  0  0  0  0  0  0  0  0  0  0  0
   -9.0803    3.2541    1.5592 C   0  0  0  0  0  0  0  0  0  0  0  0
   -9.8309    2.9543    0.2930 C   0  0  0  0  0  0  0  0  0  0  0  0
  -11.0868    3.0722    0.3044 O   0  0  0  0  0  0  0  0  0  0  0  0
   -9.1686    2.5109   -0.9138 N   0  0  0  0  0  0  0  0  0  0  0  0
   -9.9066    1.6715   -1.8691 C   0  0  0  0  0  0  0  0  0  0  0  0
  -10.1104    0.2988   -1.3032 C   0  0  0  0  0  0  0  0  0  0  0  0
   -9.6139   -0.8764   -1.8308 C   0  0  0  0  0  0  0  0  0  0  0  0
  -10.0440   -1.8740   -0.9828 C   0  0  0  0  0  0  0  0  0  0  0  0
  -10.7763   -1.2479    0.0055 C   0  0  0  0  0  0  0  0  0  0  0  0
  -10.7986    0.0465   -0.2136 O   0  0  0  0  0  0  0  0  0  0  0  0
   -7.8147    2.9726   -1.2599 C   0  0  0  0  0  0  0  0  0  0  0  0
   -6.7774    1.8608   -1.0708 C   0  0  0  0  0  0  0  0  0  0  0  0
   -6.9303    0.8944   -2.0475 F   0  0  0  0  0  0  0  0  0  0  0  0
   -6.9140    1.2706    0.1723 F   0  0  0  0  0  0  0  0  0  0  0  0
   -5.5074    2.3974   -1.1748 F   0  0  0  0  0  0  0  0  0  0  0  0
   -8.8989    3.8148    4.9475 N   0  0  0  0  0  0  0  0  0  0  0  0
  -10.1874    4.5028    5.0176 C   0  0  0  0  0  0  0  0  0  0  0  0
  1  3  4  0
  1 14  4  0
  1  2  1  0
  3  4  4  0
  4  5  4  0
  5  6  4  0
  5 22  1  0
  6  7  1  0
  6 14  4  0
  7  8  1  0
  8  9  4  0
  8 12  4  0
  9 10  4  0
 10 11  4  0
 11 12  4  0
 12 13  1  0
 13 14  1  0
 13 15  1  6
 15 16  4  0
 15 20  4  0
 16 17  4  0
 17 18  4  0
 17 21  1  0
 18 19  4  0
 19 20  4  0
 23 24  4  0
 24 25  4  0
 25 26  1  0
 26 27  1  0
 27 28  1  0
 28 29  2  0
 28 30  1  0
 30 31  1  0
 31 32  1  0
 32 33  4  0
 33 34  4  0
 34 35  4  0
 35 36  4  0
 30 37  1  0
 37 38  1  0
 38 39  1  0
 38 40  1  0
 38 41  1  0
 25 42  4  0
 42 43  1  0
 36 32  4  0
  2 23  4  0
  2 42  4  0
M  END
$$$$

     RDKit          3D

 43 48  0  0  0  0  0  0  0  0999 V2000
   -7.6410    4.9930    6.8080 C   0  0  0  0  0  0  0  0  0  1  0  0
   -7.7310    4.0530    5.7140 C   0  0  0  0  0  0  0  0  0  2  0  0
   -6.4520    5.6300    6.8680 N   0  0  0  0  0  0  0  0  0  0  0  0
   -6.2260    6.5240    7.8670 N   0  0  0  0  0  0  0  0  0  0  0  0
   -7.1930    6.7500    8.7820 C   0  0  0  0  0  0  0  0  0  0  0  0
   -8.4240    6.1170    8.7580 C   0  0  0  0  0  0  0  0  0  0  0  0
   -9.3950    6.3570    9.7450 N   0  0  0  0  0  0  0  0  0  0  0  0
  -10.5620    5.6840    9.7600 C   0  0  0  0  0  0  0  0  0  0  0  0
  -11.5770    5.6820   10.5960 N   0  0  0  0  0  0  0  0  0  0  0  0
  -12.4690    4.7490   10.1080 N   0  0  0  0  0  0  0  0  0  0  0  0
  -12.0160    4.1880    8.9920 N   0  0  0  0  0  0  0  0  0  0  0  0
  -10.8400    4.7900    8.7610 N   0  0  0  0  0  0  0  0  0  0  0  0
   -9.9950    4.4790    7.6090 C   0  0  0  0  0  0  0  0  0  0  0  0
   -8.6630    5.2070    7.7200 C   0  0  0  0  0  0  0  0  0  0  0  0
  -10.7490    4.8610    6.3730 C   0  0  0  0  0  0  0  0  0  0  0  0
  -11.0350    6.2020    6.1170 C   0  0  0  0  0  0  0  0  0  0  0  0
  -11.7370    6.5580    4.9650 C   0  0  0  0  0  0  0  0  0  0  0  0
  -12.1550    5.5730    4.0710 C   0  0  0  0  0  0  0  0  0  0  0  0
  -11.8700    4.2310    4.3270 C   0  0  0  0  0  0  0  0  0  0  0  0
  -11.1660    3.8760    5.4790 C   0  0  0  0  0  0  0  0  0  0  0  0
  -12.0160    7.8660    4.7150 O   0  0  0  0  0  0  0  0  0  0  0  0
   -6.8990    7.6510    9.7710 O   0  0  0  0  0  0  0  0  0  0  0  0
   -6.8585    3.0710    5.3991 N   0  0  0  0  0  0  0  0  0  0  0  0
   -7.2842    2.4229    4.3248 N   0  0  0  0  0  0  0  0  0  0  0  0
   -8.4563    2.9815    3.9700 C   0  0  0  0  0  0  0  0  0  0  0  0
   -9.3797    2.4819    2.5149 S   0  0  0  0  0  0  0  0  0  0  0  0
   -8.4938    3.6374    1.4180 C   0  0  0  0  0  0  0  0  0  0  0  0
   -9.0089    3.5022    0.0133 C   0  0  0  0  0  0  0  0  0  0  0  0
   -9.6929    4.4511   -0.4586 O   0  0  0  0  0  0  0  0  0  0  0  0
   -8.7713    2.3182   -0.7898 N   0  0  0  0  0  0  0  0  0  0  0  0
   -9.6581    2.0355   -1.9313 C   0  0  0  0  0  0  0  0  0  0  0  0
   -9.4636    3.0421   -3.0246 C   0  0  0  0  0  0  0  0  0  0  0  0
  -10.4328    3.8886   -3.5251 C   0  0  0  0  0  0  0  0  0  0  0  0
   -9.8079    4.6287   -4.5057 C   0  0  0  0  0  0  0  0  0  0  0  0
   -8.5007    4.1869   -4.5446 C   0  0  0  0  0  0  0  0  0  0  0  0
   -8.3269    3.2407   -3.6507 O   0  0  0  0  0  0  0  0  0  0  0  0
   -7.7149    1.3488   -0.4436 C   0  0  0  0  0  0  0  0  0  0  0  0
   -6.3683    1.7543   -1.0453 C   0  0  0  0  0  0  0  0  0  0  0  0
   -5.3784    0.9236   -0.5540 F   0  0  0  0  0  0  0  0  0  0  0  0
   -6.4094    1.6285   -2.4207 F   0  0  0  0  0  0  0  0  0  0  0  0
   -6.0594    3.0618   -0.7172 F   0  0  0  0  0  0  0  0  0  0  0  0
   -8.8094    3.9752    4.8103 N   0  0  0  0  0  0  0  0  0  0  0  0
   -9.8974    4.9406    4.6531 C   0  0  0  0  0  0  0  0  0  0  0  0
  1  3  4  0
  1 14  4  0
  1  2  1  0
  3  4  4  0
  4  5  4  0
  5  6  4  0
  5 22  1  0
  6  7  1  0
  6 14  4  0
  7  8  1  0
  8  9  4  0
  8 12  4  0
  9 10  4  0
 10 11  4  0
 11 12  4  0
 12 13  1  0
 13 14  1  0
 13 15  1  6
 15 16  4  0
 15 20  4  0
 16 17  4  0
 17 18  4  0
 17 21  1  0
 18 19  4  0
 19 20  4  0
 23 24  4  0
 24 25  4  0
 25 26  1  0
 26 27  1  0
 27 28  1  0
 28 29  2  0
 28 30  1  0
 30 31  1  0
 31 32  1  0
 32 33  4  0
 33 34  4  0
 34 35  4  0
 35 36  4  0
 30 37  1  0
 37 38  1  0
 38 39  1  0
 38 40  1  0
 38 41  1  0
 25 42  4  0
 42 43  1  0
 36 32  4  0
  2 23  4  0
  2 42  4  0
M  END
$$$$

     RDKit          3D

 43 48  0  0  0  0  0  0  0  0999 V2000
   -7.6410    4.9930    6.8080 C   0  0  0  0  0  0  0  0  0  1  0  0
   -7.7310    4.0530    5.7140 C   0  0  0  0  0  0  0  0  0  2  0  0
   -6.4520    5.6300    6.8680 N   0  0  0  0  0  0  0  0  0  0  0  0
   -6.2260    6.5240    7.8670 N   0  0  0  0  0  0  0  0  0  0  0  0
   -7.1930    6.7500    8.7820 C   0  0  0  0  0  0  0  0  0  0  0  0
   -8.4240    6.1170    8.7580 C   0  0  0  0  0  0  0  0  0  0  0  0
   -9.3950    6.3570    9.7450 N   0  0  0  0  0  0  0  0  0  0  0  0
  -10.5620    5.6840    9.7600 C   0  0  0  0  0  0  0  0  0  0  0  0
  -11.5770    5.6820   10.5960 N   0  0  0  0  0  0  0  0  0  0  0  0
  -12.4690    4.7490   10.1080 N   0  0  0  0  0  0  0  0  0  0  0  0
  -12.0160    4.1880    8.9920 N   0  0  0  0  0  0  0  0  0  0  0  0
  -10.8400    4.7900    8.7610 N   0  0  0  0  0  0  0  0  0  0  0  0
   -9.9950    4.4790    7.6090 C   0  0  0  0  0  0  0  0  0  0  0  0
   -8.6630    5.2070    7.7200 C   0  0  0  0  0  0  0  0  0  0  0  0
  -10.7490    4.8610    6.3730 C   0  0  0  0  0  0  0  0  0  0  0  0
  -11.0350    6.2020    6.1170 C   0  0  0  0  0  0  0  0  0  0  0  0
  -11.7370    6.5580    4.9650 C   0  0  0  0  0  0  0  0  0  0  0  0
  -12.1550    5.5730    4.0710 C   0  0  0  0  0  0  0  0  0  0  0  0
  -11.8700    4.2310    4.3270 C   0  0  0  0  0  0  0  0  0  0  0  0
  -11.1660    3.8760    5.4790 C   0  0  0  0  0  0  0  0  0  0  0  0
  -12.0160    7.8660    4.7150 O   0  0  0  0  0  0  0  0  0  0  0  0
   -6.8990    7.6510    9.7710 O   0  0  0  0  0  0  0  0  0  0  0  0
   -6.7487    3.2833    5.2069 N   0  0  0  0  0  0  0  0  0  0  0  0
   -7.2191    2.5323    4.2207 N   0  0  0  0  0  0  0  0  0  0  0  0
   -8.5305    2.8139    4.1009 C   0  0  0  0  0  0  0  0  0  0  0  0
   -9.5945    2.0377    2.8788 S   0  0  0  0  0  0  0  0  0  0  0  0
   -9.4611    3.3825    1.6412 C   0  0  0  0  0  0  0  0  0  0  0  0
   -8.1389    3.3465    0.9206 C   0  0  0  0  0  0  0  0  0  0  0  0
   -7.0998    3.7245    1.5260 O   0  0  0  0  0  0  0  0  0  0  0  0
   -8.0525    2.9488   -0.4615 N   0  0  0  0  0  0  0  0  0  0  0  0
   -7.1006    3.6359   -1.3448 C   0  0  0  0  0  0  0  0  0  0  0  0
   -5.8561    2.8178   -1.5239 C   0  0  0  0  0  0  0  0  0  0  0  0
   -5.4632    2.1913   -2.6909 C   0  0  0  0  0  0  0  0  0  0  0  0
   -4.2678    1.5708   -2.3899 C   0  0  0  0  0  0  0  0  0  0  0  0
   -4.0069    1.8553   -1.0628 C   0  0  0  0  0  0  0  0  0  0  0  0
   -4.9741    2.5989   -0.5728 O   0  0  0  0  0  0  0  0  0  0  0  0
   -8.7357    1.7241   -0.9142 C   0  0  0  0  0  0  0  0  0  0  0  0
   -9.7639    2.0069   -2.0174 C   0  0  0  0  0  0  0  0  0  0  0  0
  -10.5192    3.1281   -1.7099 F   0  0  0  0  0  0  0  0  0  0  0  0
   -9.1229    2.2056   -3.2293 F   0  0  0  0  0  0  0  0  0  0  0  0
  -10.6103    0.9204   -2.1481 F   0  0  0  0  0  0  0  0  0  0  0  0
   -8.9210    3.7428    4.9970 N   0  0  0  0  0  0  0  0  0  0  0  0
  -10.2624    4.3091    5.1598 C   0  0  0  0  0  0  0  0  0  0  0  0
  1  3  4  0
  1 14  4  0
  1  2  1  0
  3  4  4  0
  4  5  4  0
  5  6  4  0
  5 22  1  0
  6  7  1  0
  6 14  4  0
  7  8  1  0
  8  9  4  0
  8 12  4  0
  9 10  4  0
 10 11  4  0
 11 12  4  0
 12 13  1  0
 13 14  1  0
 13 15  1  6
 15 16  4  0
 15 20  4  0
 16 17  4  0
 17 18  4  0
 17 21  1  0
 18 19  4  0
 19 20  4  0
 23 24  4  0
 24 25  4  0
 25 26  1  0
 26 27  1  0
 27 28  1  0
 28 29  2  0
 28 30  1  0
 30 31  1  0
 31 32  1  0
 32 33  4  0
 33 34  4  0
 34 35  4  0
 35 36  4  0
 30 37  1  0
 37 38  1  0
 38 39  1  0
 38 40  1  0
 38 41  1  0
 25 42  4  0
 42 43  1  0
 36 32  4  0
  2 23  4  0
  2 42  4  0
M  END
$$$$

     RDKit          3D

 39 44  0  0  0  0  0  0  0  0999 V2000
   -7.6410    4.9930    6.8080 C   0  0  0  0  0  0  0  0  0  1  0  0
   -7.7310    4.0530    5.7140 C   0  0  0  0  0  0  0  0  0  2  0  0
   -6.4520    5.6300    6.8680 N   0  0  0  0  0  0  0  0  0  0  0  0
   -6.2260    6.5240    7.8670 N   0  0  0  0  0  0  0  0  0  0  0  0
   -7.1930    6.7500    8.7820 C   0  0  0  0  0  0  0  0  0  0  0  0
   -8.4240    6.1170    8.7580 C   0  0  0  0  0  0  0  0  0  0  0  0
   -9.3950    6.3570    9.7450 N   0  0  0  0  0  0  0  0  0  0  0  0
  -10.5620    5.6840    9.7600 C   0  0  0  0  0  0  0  0  0  0  0  0
  -11.5770    5.6820   10.5960 N   0  0  0  0  0  0  0  0  0  0  0  0
  -12.4690    4.7490   10.1080 N   0  0  0  0  0  0  0  0  0  0  0  0
  -12.0160    4.1880    8.9920 N   0  0  0  0  0  0  0  0  0  0  0  0
  -10.8400    4.7900    8.7610 N   0  0  0  0  0  0  0  0  0  0  0  0
   -9.9950    4.4790    7.6090 C   0  0  0  0  0  0  0  0  0  0  0  0
   -8.6630    5.2070    7.7200 C   0  0  0  0  0  0  0  0  0  0  0  0
  -10.7490    4.8610    6.3730 C   0  0  0  0  0  0  0  0  0  0  0  0
  -11.0350    6.2020    6.1170 C   0  0  0  0  0  0  0  0  0  0  0  0
  -11.7370    6.5580    4.9650 C   0  0  0  0  0  0  0  0  0  0  0  0
  -12.1550    5.5730    4.0710 C   0  0  0  0  0  0  0  0  0  0  0  0
  -11.8700    4.2310    4.3270 C   0  0  0  0  0  0  0  0  0  0  0  0
  -11.1660    3.8760    5.4790 C   0  0  0  0  0  0  0  0  0  0  0  0
  -12.0160    7.8660    4.7150 O   0  0  0  0  0  0  0  0  0  0  0  0
   -6.8990    7.6510    9.7710 O   0  0  0  0  0  0  0  0  0  0  0  0
   -6.8916    2.9775    5.6139 N   0  0  0  0  0  0  0  0  0  0  0  0
   -7.0319    1.9618    4.7148 C   0  0  0  0  0  0  0  0  0  0  0  0
   -5.8280    0.6398    4.6702 S   0  0  0  0  0  0  0  0  0  0  0  0
   -6.7198   -0.3672    5.8952 C   0  0  0  0  0  0  0  0  0  0  0  0
   -8.0954    1.9383    3.8680 N   0  0  0  0  0  0  0  0  0  0  0  0
   -8.9899    2.9520    3.9144 C   0  0  0  0  0  0  0  0  0  0  0  0
  -10.3501    3.1130    2.9573 S   0  0  0  0  0  0  0  0  0  0  0  0
  -10.8213    4.6037    3.6064 C   0  0  0  0  0  0  0  0  0  0  0  0
  -11.9715    5.3886    3.1053 C   0  0  0  0  0  0  0  0  0  0  0  0
  -12.0461    6.6228    3.3487 O   0  0  0  0  0  0  0  0  0  0  0  0
  -12.9961    4.7579    2.3192 N   0  0  0  0  0  0  0  0  0  0  0  0
  -14.1224    5.5022    1.7617 C   0  0  0  0  0  0  0  0  0  0  0  0
  -15.0384    5.9118    2.8315 C   0  0  0  0  0  0  0  0  0  0  0  0
  -15.7608    6.2352    3.6758 N   0  0  0  0  0  0  0  0  0  0  0  0
   -9.8858    4.9875    4.5884 C   0  0  0  0  0  0  0  0  0  0  0  0
   -9.9300    6.2528    5.2568 N   0  0  0  0  0  0  0  0  0  0  0  0
   -8.8632    4.0256    4.7786 C   0  0  0  0  0  0  0  0  0  0  0  0
  1  3  4  0
  1 14  4  0
  1  2  1  0
  3  4  4  0
  4  5  4  0
  5  6  4  0
  5 22  1  0
  6  7  1  0
  6 14  4  0
  7  8  1  0
  8  9  4  0
  8 12  4  0
  9 10  4  0
 10 11  4  0
 11 12  4  0
 12 13  1  0
 13 14  1  0
 13 15  1  6
 15 16  4  0
 15 20  4  0
 16 17  4  0
 17 18  4  0
 17 21  1  0
 18 19  4  0
 19 20  4  0
 23 24  4  0
 24 25  1  0
 25 26  1  0
 24 27  4  0
 27 28  4  0
 28 29  4  0
 29 30  4  0
 30 31  1  0
 31 32  2  0
 31 33  1  0
 33 34  1  0
 34 35  1  0
 35 36  3  0
 30 37  4  0
 37 38  1  0
 37 39  4  0
 39 28  4  0
  2 23  4  0
  2 39  4  0
M  END
$$$$

     RDKit          3D

 49 58  0  0  0  0  0  0  0  0999 V2000
   -7.6410    4.9930    6.8080 C   0  0  0  0  0  0  0  0  0  1  0  0
   -7.7310    4.0530    5.7140 C   0  0  0  0  0  0  0  0  0  2  0  0
   -6.4520    5.6300    6.8680 N   0  0  0  0  0  0  0  0  0  0  0  0
   -6.2260    6.5240    7.8670 N   0  0  0  0  0  0  0  0  0  0  0  0
   -7.1930    6.7500    8.7820 C   0  0  0  0  0  0  0  0  0  0  0  0
   -8.4240    6.1170    8.7580 C   0  0  0  0  0  0  0  0  0  0  0  0
   -9.3950    6.3570    9.7450 N   0  0  0  0  0  0  0  0  0  0  0  0
  -10.5620    5.6840    9.7600 C   0  0  0  0  0  0  0  0  0  0  0  0
  -11.5770    5.6820   10.5960 N   0  0  0  0  0  0  0  0  0  0  0  0
  -12.4690    4.7490   10.1080 N   0  0  0  0  0  0  0  0  0  0  0  0
  -12.0160    4.1880    8.9920 N   0  0  0  0  0  0  0  0  0  0  0  0
  -10.8400    4.7900    8.7610 N   0  0  0  0  0  0  0  0  0  0  0  0
   -9.9950    4.4790    7.6090 C   0  0  0  0  0  0  0  0  0  0  0  0
   -8.6630    5.2070    7.7200 C   0  0  0  0  0  0  0  0  0  0  0  0
  -10.7490    4.8610    6.3730 C   0  0  0  0  0  0  0  0  0  0  0  0
  -11.0350    6.2020    6.1170 C   0  0  0  0  0  0  0  0  0  0  0  0
  -11.7370    6.5580    4.9650 C   0  0  0  0  0  0  0  0  0  0  0  0
  -12.1550    5.5730    4.0710 C   0  0  0  0  0  0  0  0  0  0  0  0
  -11.8700    4.2310    4.3270 C   0  0  0  0  0  0  0  0  0  0  0  0
  -11.1660    3.8760    5.4790 C   0  0  0  0  0  0  0  0  0  0  0  0
  -12.0160    7.8660    4.7150 O   0  0  0  0  0  0  0  0  0  0  0  0
   -6.8990    7.6510    9.7710 O   0  0  0  0  0  0  0  0  0  0  0  0
   -8.7036    4.2446    4.6448 C   0  0  0  0  0  0  0  0  0  0  0  0
   -8.9699    3.2207    3.7069 C   0  0  0  0  0  0  0  0  0  1  0  0
   -8.1161    2.1363    3.6135 N   0  0  0  0  0  0  0  0  0  0  0  0
   -8.2846    1.1793    2.5474 C   0  0  0  0  0  0  0  0  0  0  0  0
   -8.5356   -0.1733    2.8325 C   0  0  0  0  0  0  0  0  0  0  0  0
   -8.7009   -1.0755    1.7806 C   0  0  0  0  0  0  0  0  0  0  0  0
   -8.6209   -0.6265    0.4614 C   0  0  0  0  0  0  0  0  0  0  0  0
   -8.3760    0.7257    0.2128 C   0  0  0  0  0  0  0  0  0  0  0  0
   -8.2153    1.5907    1.2494 N   0  0  0  0  0  0  0  0  0  0  0  0
   -7.0935    1.9775    4.5312 C   0  0  0  0  0  0  0  0  0  1  0  0
   -7.0335    2.8150    5.6685 C   0  0  0  0  0  0  0  0  0  0  0  0
   -6.1101    2.4474    6.8205 C   0  0  0  0  0  0  0  0  0  0  0  0
   -5.9478    0.9254    6.9234 C   0  0  0  0  0  0  0  0  0  0  0  0
   -5.4836    0.3841    5.6003 C   0  0  0  0  0  0  0  0  0  0  0  0
   -4.4607   -0.5743    5.5377 C   0  0  0  0  0  0  0  0  0  0  0  0
   -3.9533   -0.9769    4.3015 C   0  0  0  0  0  0  0  0  0  0  0  0
   -4.4337   -0.3957    3.1275 C   0  0  0  0  0  0  0  0  0  0  0  0
   -5.4470    0.5650    3.1827 C   0  0  0  0  0  0  0  0  0  0  0  0
   -6.0336    0.9174    4.4150 C   0  0  0  0  0  0  0  0  0  2  0  0
  -10.1638    3.4142    2.8121 C   0  0  0  0  0  0  0  0  0  2  0  0
  -10.9996    2.3499    2.4168 C   0  0  0  0  0  0  0  0  0  0  0  0
  -12.0979    2.5805    1.5841 C   0  0  0  0  0  0  0  0  0  0  0  0
  -12.4085    3.8779    1.1760 C   0  0  0  0  0  0  0  0  0  0  0  0
  -11.6492    4.9542    1.6366 C   0  0  0  0  0  0  0  0  0  0  0  0
  -10.5534    4.7308    2.4841 C   0  0  0  0  0  0  0  0  0  0  0  0
   -9.8053    5.8866    3.0867 C   0  0  0  0  0  0  0  0  0  0  0  0
   -9.4512    5.5647    4.5442 C   0  0  0  0  0  0  0  0  0  0  0  0
  1  3  4  0
  1 14  4  0
  1  2  1  0
  3  4  4  0
  4  5  4  0
  5  6  4  0
  5 22  1  0
  6  7  1  0
  6 14  4  0
  7  8  1  0
  8  9  4  0
  8 12  4  0
  9 10  4  0
 10 11  4  0
 11 12  4  0
 12 13  1  0
 13 14  1  0
 13 15  1  6
 15 16  4  0
 15 20  4  0
 16 17  4  0
 17 18  4  0
 17 21  1  0
 18 19  4  0
 19 20  4  0
 23 24  4  0
 24 25  4  0
 25 26  1  0
 26 27  4  0
 27 28  4  0
 28 29  4  0
 29 30  4  0
 30 31  4  0
 25 32  4  0
 32 33  4  0
 33 34  1  0
 34 35  1  0
 35 36  1  0
 36 37  4  0
 37 38  4  0
 38 39  4  0
 39 40  4  0
 40 41  4  0
 24 42  1  0
 42 43  4  0
 43 44  4  0
 44 45  4  0
 45 46  4  0
 46 47  4  0
 47 48  1  0
 48 49  1  0
 41 36  4  0
 47 42  4  0
 49 23  1  0
 31 26  4  0
 41 32  1  0
  2 23  4  0
  2 33  4  0
M  CHG  1  25   1
M  END
$$$$

     RDKit          3D

 29 33  0  0  0  0  0  0  0  0999 V2000
   -7.6410    4.9930    6.8080 C   0  0  0  0  0  0  0  0  0  1  0  0
   -7.7310    4.0530    5.7140 C   0  0  0  0  0  0  0  0  0  2  0  0
   -6.4520    5.6300    6.8680 N   0  0  0  0  0  0  0  0  0  0  0  0
   -6.2260    6.5240    7.8670 N   0  0  0  0  0  0  0  0  0  0  0  0
   -7.1930    6.7500    8.7820 C   0  0  0  0  0  0  0  0  0  0  0  0
   -8.4240    6.1170    8.7580 C   0  0  0  0  0  0  0  0  0  0  0  0
   -9.3950    6.3570    9.7450 N   0  0  0  0  0  0  0  0  0  0  0  0
  -10.5620    5.6840    9.7600 C   0  0  0  0  0  0  0  0  0  0  0  0
  -11.5770    5.6820   10.5960 N   0  0  0  0  0  0  0  0  0  0  0  0
  -12.4690    4.7490   10.1080 N   0  0  0  0  0  0  0  0  0  0  0  0
  -12.0160    4.1880    8.9920 N   0  0  0  0  0  0  0  0  0  0  0  0
  -10.8400    4.7900    8.7610 N   0  0  0  0  0  0  0  0  0  0  0  0
   -9.9950    4.4790    7.6090 C   0  0  0  0  0  0  0  0  0  0  0  0
   -8.6630    5.2070    7.7200 C   0  0  0  0  0  0  0  0  0  0  0  0
  -10.7490    4.8610    6.3730 C   0  0  0  0  0  0  0  0  0  0  0  0
  -11.0350    6.2020    6.1170 C   0  0  0  0  0  0  0  0  0  0  0  0
  -11.7370    6.5580    4.9650 C   0  0  0  0  0  0  0  0  0  0  0  0
  -12.1550    5.5730    4.0710 C   0  0  0  0  0  0  0  0  0  0  0  0
  -11.8700    4.2310    4.3270 C   0  0  0  0  0  0  0  0  0  0  0  0
  -11.1660    3.8760    5.4790 C   0  0  0  0  0  0  0  0  0  0  0  0
  -12.0160    7.8660    4.7150 O   0  0  0  0  0  0  0  0  0  0  0  0
   -6.8990    7.6510    9.7710 O   0  0  0  0  0  0  0  0  0  0  0  0
   -6.8810    2.9322    5.5958 C   0  0  0  0  0  0  0  0  0  0  0  0
   -7.0188    1.9586    4.5968 C   0  0  0  0  0  0  0  0  0  0  0  0
   -6.0726    0.7959    4.5401 C   0  0  0  0  0  0  0  0  0  0  0  0
   -8.0906    2.0397    3.6994 C   0  0  0  0  0  0  0  0  0  0  0  0
   -8.9902    3.1045    3.7715 C   0  0  0  0  0  0  0  0  0  0  0  0
   -8.8446    4.0991    4.7499 C   0  0  0  0  0  0  0  0  0  0  0  0
   -9.7516    5.2102    4.7507 N   0  0  0  0  0  0  0  0  0  0  0  0
  1  3  4  0
  1 14  4  0
  1  2  1  0
  3  4  4  0
  4  5  4  0
  5  6  4  0
  5 22  1  0
  6  7  1  0
  6 14  4  0
  7  8  1  0
  8  9  4  0
  8 12  4  0
  9 10  4  0
 10 11  4  0
 11 12  4  0
 12 13  1  0
 13 14  1  0
 13 15  1  6
 15 16  4  0
 15 20  4  0
 16 17  4  0
 17 18  4  0
 17 21  1  0
 18 19  4  0
 19 20  4  0
 23 24  4  0
 24 25  1  0
 24 26  4  0
 26 27  4  0
 27 28  4  0
 28 29  1  0
  2 23  4  0
  2 28  4  0
M  END
$$$$

     RDKit          3D

 27 31  0  0  0  0  0  0  0  0999 V2000
   -7.6410    4.9930    6.8080 C   0  0  0  0  0  0  0  0  0  1  0  0
   -7.7310    4.0530    5.7140 C   0  0  0  0  0  0  0  0  0  2  0  0
   -6.4520    5.6300    6.8680 N   0  0  0  0  0  0  0  0  0  0  0  0
   -6.2260    6.5240    7.8670 N   0  0  0  0  0  0  0  0  0  0  0  0
   -7.1930    6.7500    8.7820 C   0  0  0  0  0  0  0  0  0  0  0  0
   -8.4240    6.1170    8.7580 C   0  0  0  0  0  0  0  0  0  0  0  0
   -9.3950    6.3570    9.7450 N   0  0  0  0  0  0  0  0  0  0  0  0
  -10.5620    5.6840    9.7600 C   0  0  0  0  0  0  0  0  0  0  0  0
  -11.5770    5.6820   10.5960 N   0  0  0  0  0  0  0  0  0  0  0  0
  -12.4690    4.7490   10.1080 N   0  0  0  0  0  0  0  0  0  0  0  0
  -12.0160    4.1880    8.9920 N   0  0  0  0  0  0  0  0  0  0  0  0
  -10.8400    4.7900    8.7610 N   0  0  0  0  0  0  0  0  0  0  0  0
   -9.9950    4.4790    7.6090 C   0  0  0  0  0  0  0  0  0  0  0  0
   -8.6630    5.2070    7.7200 C   0  0  0  0  0  0  0  0  0  0  0  0
  -10.7490    4.8610    6.3730 C   0  0  0  0  0  0  0  0  0  0  0  0
  -11.0350    6.2020    6.1170 C   0  0  0  0  0  0  0  0  0  0  0  0
  -11.7370    6.5580    4.9650 C   0  0  0  0  0  0  0  0  0  0  0  0
  -12.1550    5.5730    4.0710 C   0  0  0  0  0  0  0  0  0  0  0  0
  -11.8700    4.2310    4.3270 C   0  0  0  0  0  0  0  0  0  0  0  0
  -11.1660    3.8760    5.4790 C   0  0  0  0  0  0  0  0  0  0  0  0
  -12.0160    7.8660    4.7150 O   0  0  0  0  0  0  0  0  0  0  0  0
   -6.8990    7.6510    9.7710 O   0  0  0  0  0  0  0  0  0  0  0  0
   -6.7825    3.2088    5.2633 N   0  0  0  0  0  0  0  0  0  0  0  0
   -7.2628    2.4731    4.2711 N   0  0  0  0  0  0  0  0  0  0  0  0
   -8.5479    2.8339    4.0952 C   0  0  0  0  0  0  0  0  0  0  0  0
   -8.9027    3.8018    4.9586 N   0  0  0  0  0  0  0  0  0  0  0  0
  -10.1993    4.4694    5.0284 C   0  0  0  0  0  0  0  0  0  0  0  0
  1  3  4  0
  1 14  4  0
  1  2  1  0
  3  4  4  0
  4  5  4  0
  5  6  4  0
  5 22  1  0
  6  7  1  0
  6 14  4  0
  7  8  1  0
  8  9  4  0
  8 12  4  0
  9 10  4  0
 10 11  4  0
 11 12  4  0
 12 13  1  0
 13 14  1  0
 13 15  1  6
 15 16  4  0
 15 20  4  0
 16 17  4  0
 17 18  4  0
 17 21  1  0
 18 19  4  0
 19 20  4  0
 23 24  4  0
 24 25  4  0
 25 26  4  0
 26 27  1  0
  2 23  4  0
  2 26  4  0
M  END
$$$$

     RDKit          3D

 47 53  0  0  0  0  0  0  0  0999 V2000
   -7.6410    4.9930    6.8080 C   0  0  0  0  0  0  0  0  0  1  0  0
   -7.7310    4.0530    5.7140 C   0  0  0  0  0  0  0  0  0  2  0  0
   -6.4520    5.6300    6.8680 N   0  0  0  0  0  0  0  0  0  0  0  0
   -6.2260    6.5240    7.8670 N   0  0  0  0  0  0  0  0  0  0  0  0
   -7.1930    6.7500    8.7820 C   0  0  0  0  0  0  0  0  0  0  0  0
   -8.4240    6.1170    8.7580 C   0  0  0  0  0  0  0  0  0  0  0  0
   -9.3950    6.3570    9.7450 N   0  0  0  0  0  0  0  0  0  0  0  0
  -10.5620    5.6840    9.7600 C   0  0  0  0  0  0  0  0  0  0  0  0
  -11.5770    5.6820   10.5960 N   0  0  0  0  0  0  0  0  0  0  0  0
  -12.4690    4.7490   10.1080 N   0  0  0  0  0  0  0  0  0  0  0  0
  -12.0160    4.1880    8.9920 N   0  0  0  0  0  0  0  0  0  0  0  0
  -10.8400    4.7900    8.7610 N   0  0  0  0  0  0  0  0  0  0  0  0
   -9.9950    4.4790    7.6090 C   0  0  0  0  0  0  0  0  0  0  0  0
   -8.6630    5.2070    7.7200 C   0  0  0  0  0  0  0  0  0  0  0  0
  -10.7490    4.8610    6.3730 C   0  0  0  0  0  0  0  0  0  0  0  0
  -11.0350    6.2020    6.1170 C   0  0  0  0  0  0  0  0  0  0  0  0
  -11.7370    6.5580    4.9650 C   0  0  0  0  0  0  0  0  0  0  0  0
  -12.1550    5.5730    4.0710 C   0  0  0  0  0  0  0  0  0  0  0  0
  -11.8700    4.2310    4.3270 C   0  0  0  0  0  0  0  0  0  0  0  0
  -11.1660    3.8760    5.4790 C   0  0  0  0  0  0  0  0  0  0  0  0
  -12.0160    7.8660    4.7150 O   0  0  0  0  0  0  0  0  0  0  0  0
   -6.8990    7.6510    9.7710 O   0  0  0  0  0  0  0  0  0  0  0  0
   -6.9084    3.0034    5.4694 N   0  0  0  0  0  0  0  0  0  0  0  0
   -7.3529    2.3270    4.4195 N   0  0  0  0  0  0  0  0  0  0  0  0
   -8.4815    2.9374    4.0098 C   0  0  0  0  0  0  0  0  0  0  0  0
   -9.4594    2.3801    2.6143 S   0  0  0  0  0  0  0  0  0  0  0  0
  -10.5740    1.3698    3.6421 C   0  0  0  0  0  0  0  0  0  0  0  0
  -11.7531    0.9319    2.8204 C   0  0  0  0  0  0  0  0  0  0  0  0
  -12.5445    1.8223    2.3984 O   0  0  0  0  0  0  0  0  0  0  0  0
  -12.0227   -0.4631    2.5439 N   0  0  0  0  0  0  0  0  0  0  0  0
  -10.9696   -1.4373    2.6609 C   0  0  0  0  0  0  0  0  0  0  0  0
   -9.8499   -1.3530    1.8201 C   0  0  0  0  0  0  0  0  0  0  0  0
   -8.7847   -2.2448    1.9723 C   0  0  0  0  0  0  0  0  0  0  0  0
   -8.8235   -3.2146    2.9765 C   0  0  0  0  0  0  0  0  0  0  0  0
   -9.9349   -3.3064    3.8198 C   0  0  0  0  0  0  0  0  0  0  0  0
  -11.0228   -2.4353    3.6599 C   0  0  0  0  0  0  0  0  0  0  0  0
  -12.1562   -2.5488    4.5364 N   0  0  0  0  0  0  0  0  0  0  0  0
  -13.4983   -2.3030    4.0960 C   0  0  0  0  0  0  0  0  0  0  0  0
  -14.4202   -2.1736    4.9430 O   0  0  0  0  0  0  0  0  0  0  0  0
  -13.8146   -2.2143    2.6305 C   0  0  0  0  0  0  0  0  0  0  0  0
  -13.3506   -0.8686    2.0360 C   0  0  0  0  0  0  0  0  0  0  0  0
  -13.3490   -0.9151    0.4968 C   0  0  0  0  0  0  0  0  0  0  0  0
  -12.4475   -1.8573    0.0372 F   0  0  0  0  0  0  0  0  0  0  0  0
  -13.0005    0.3215   -0.0156 F   0  0  0  0  0  0  0  0  0  0  0  0
  -14.6112   -1.2413    0.0314 F   0  0  0  0  0  0  0  0  0  0  0  0
   -8.7723    4.0075    4.7736 N   0  0  0  0  0  0  0  0  0  0  0  0
   -9.9040    4.9245    4.6348 C   0  0  0  0  0  0  0  0  0  0  0  0
  1  3  4  0
  1 14  4  0
  1  2  1  0
  3  4  4  0
  4  5  4  0
  5  6  4  0
  5 22  1  0
  6  7  1  0
  6 14  4  0
  7  8  1  0
  8  9  4  0
  8 12  4  0
  9 10  4  0
 10 11  4  0
 11 12  4  0
 12 13  1  0
 13 14  1  0
 13 15  1  6
 15 16  4  0
 15 20  4  0
 16 17  4  0
 17 18  4  0
 17 21  1  0
 18 19  4  0
 19 20  4  0
 23 24  4  0
 24 25  4  0
 25 26  1  0
 26 27  1  0
 27 28  1  0
 28 29  2  0
 28 30  1  0
 30 31  1  0
 31 32  4  0
 32 33  4  0
 33 34  4  0
 34 35  4  0
 35 36  4  0
 36 37  1  0
 37 38  1  0
 38 39  2  0
 38 40  1  0
 40 41  1  0
 41 42  1  0
 42 43  1  0
 42 44  1  0
 42 45  1  0
 25 46  4  0
 46 47  1  0
 41 30  1  0
 36 31  4  0
  2 23  4  0
  2 46  4  0
M  END
$$$$

     RDKit          3D

 41 48  0  0  0  0  0  0  0  0999 V2000
   -7.6410    4.9930    6.8080 C   0  0  0  0  0  0  0  0  0  1  0  0
   -7.7310    4.0530    5.7140 C   0  0  0  0  0  0  0  0  0  2  0  0
   -6.4520    5.6300    6.8680 N   0  0  0  0  0  0  0  0  0  0  0  0
   -6.2260    6.5240    7.8670 N   0  0  0  0  0  0  0  0  0  0  0  0
   -7.1930    6.7500    8.7820 C   0  0  0  0  0  0  0  0  0  0  0  0
   -8.4240    6.1170    8.7580 C   0  0  0  0  0  0  0  0  0  0  0  0
   -9.3950    6.3570    9.7450 N   0  0  0  0  0  0  0  0  0  0  0  0
  -10.5620    5.6840    9.7600 C   0  0  0  0  0  0  0  0  0  0  0  0
  -11.5770    5.6820   10.5960 N   0  0  0  0  0  0  0  0  0  0  0  0
  -12.4690    4.7490   10.1080 N   0  0  0  0  0  0  0  0  0  0  0  0
  -12.0160    4.1880    8.9920 N   0  0  0  0  0  0  0  0  0  0  0  0
  -10.8400    4.7900    8.7610 N   0  0  0  0  0  0  0  0  0  0  0  0
   -9.9950    4.4790    7.6090 C   0  0  0  0  0  0  0  0  0  0  0  0
   -8.6630    5.2070    7.7200 C   0  0  0  0  0  0  0  0  0  0  0  0
  -10.7490    4.8610    6.3730 C   0  0  0  0  0  0  0  0  0  0  0  0
  -11.0350    6.2020    6.1170 C   0  0  0  0  0  0  0  0  0  0  0  0
  -11.7370    6.5580    4.9650 C   0  0  0  0  0  0  0  0  0  0  0  0
  -12.1550    5.5730    4.0710 C   0  0  0  0  0  0  0  0  0  0  0  0
  -11.8700    4.2310    4.3270 C   0  0  0  0  0  0  0  0  0  0  0  0
  -11.1660    3.8760    5.4790 C   0  0  0  0  0  0  0  0  0  0  0  0
  -12.0160    7.8660    4.7150 O   0  0  0  0  0  0  0  0  0  0  0  0
   -6.8990    7.6510    9.7710 O   0  0  0  0  0  0  0  0  0  0  0  0
   -6.9493    2.9282    5.6265 N   0  0  0  0  0  0  0  0  0  0  0  0
   -7.0952    1.9518    4.6749 C   0  0  0  0  0  0  0  0  0  0  0  0
   -6.1874    0.8461    4.6535 N   0  0  0  0  0  0  0  0  0  0  0  0
   -6.2720   -0.1967    3.6349 C   0  0  0  0  0  0  0  0  0  0  0  0
   -5.8594   -1.5741    4.1225 C   0  0  0  0  0  0  0  0  0  0  0  0
   -7.3317   -1.2409    3.9412 C   0  0  0  0  0  0  0  0  0  0  0  0
   -8.1066    2.0335    3.7578 N   0  0  0  0  0  0  0  0  0  0  0  0
   -8.9353    3.1017    3.8028 C   0  0  0  0  0  0  0  0  0  0  0  0
   -9.9568    3.3465    2.9641 N   0  0  0  0  0  0  0  0  0  0  0  0
  -10.4703    4.5164    3.3316 N   0  0  0  0  0  0  0  0  0  0  0  0
  -11.5529    5.1443    2.6293 C   0  0  0  0  0  0  0  0  0  0  0  0
  -12.6845    4.3929    2.2758 C   0  0  0  0  0  0  0  0  0  0  0  0
  -13.7365    4.9900    1.5738 C   0  0  0  0  0  0  0  0  0  0  0  0
  -13.6562    6.3341    1.2030 C   0  0  0  0  0  0  0  0  0  0  0  0
  -12.5200    7.0814    1.5254 C   0  0  0  0  0  0  0  0  0  0  0  0
  -11.4700    6.4901    2.2338 C   0  0  0  0  0  0  0  0  0  0  0  0
   -9.7825    5.0061    4.3971 C   0  0  0  0  0  0  0  0  0  0  0  0
  -10.0595    6.2517    5.0447 N   0  0  0  0  0  0  0  0  0  0  0  0
   -8.7903    4.0987    4.7240 C   0  0  0  0  0  0  0  0  0  0  0  0
  1  3  4  0
  1 14  4  0
  1  2  1  0
  3  4  4  0
  4  5  4  0
  5  6  4  0
  5 22  1  0
  6  7  1  0
  6 14  4  0
  7  8  1  0
  8  9  4  0
  8 12  4  0
  9 10  4  0
 10 11  4  0
 11 12  4  0
 12 13  1  0
 13 14  1  0
 13 15  1  6
 15 16  4  0
 15 20  4  0
 16 17  4  0
 17 18  4  0
 17 21  1  0
 18 19  4  0
 19 20  4  0
 23 24  4  0
 24 25  1  0
 25 26  1  0
 26 27  1  0
 27 28  1  0
 24 29  4  0
 29 30  4  0
 30 31  4  0
 31 32  4  0
 32 33  1  0
 33 34  4  0
 34 35  4  0
 35 36  4  0
 36 37  4  0
 37 38  4  0
 32 39  4  0
 39 40  1  0
 39 41  4  0
 28 26  1  0
 41 30  4  0
 38 33  4  0
  2 23  4  0
  2 41  4  0
M  END
$$$$

     RDKit          3D

 32 36  0  0  0  0  0  0  0  0999 V2000
   -7.6410    4.9930    6.8080 C   0  0  0  0  0  0  0  0  0  1  0  0
   -7.7310    4.0530    5.7140 C   0  0  0  0  0  0  0  0  0  2  0  0
   -6.4520    5.6300    6.8680 N   0  0  0  0  0  0  0  0  0  0  0  0
   -6.2260    6.5240    7.8670 N   0  0  0  0  0  0  0  0  0  0  0  0
   -7.1930    6.7500    8.7820 C   0  0  0  0  0  0  0  0  0  0  0  0
   -8.4240    6.1170    8.7580 C   0  0  0  0  0  0  0  0  0  0  0  0
   -9.3950    6.3570    9.7450 N   0  0  0  0  0  0  0  0  0  0  0  0
  -10.5620    5.6840    9.7600 C   0  0  0  0  0  0  0  0  0  0  0  0
  -11.5770    5.6820   10.5960 N   0  0  0  0  0  0  0  0  0  0  0  0
  -12.4690    4.7490   10.1080 N   0  0  0  0  0  0  0  0  0  0  0  0
  -12.0160    4.1880    8.9920 N   0  0  0  0  0  0  0  0  0  0  0  0
  -10.8400    4.7900    8.7610 N   0  0  0  0  0  0  0  0  0  0  0  0
   -9.9950    4.4790    7.6090 C   0  0  0  0  0  0  0  0  0  0  0  0
   -8.6630    5.2070    7.7200 C   0  0  0  0  0  0  0  0  0  0  0  0
  -10.7490    4.8610    6.3730 C   0  0  0  0  0  0  0  0  0  0  0  0
  -11.0350    6.2020    6.1170 C   0  0  0  0  0  0  0  0  0  0  0  0
  -11.7370    6.5580    4.9650 C   0  0  0  0  0  0  0  0  0  0  0  0
  -12.1550    5.5730    4.0710 C   0  0  0  0  0  0  0  0  0  0  0  0
  -11.8700    4.2310    4.3270 C   0  0  0  0  0  0  0  0  0  0  0  0
  -11.1660    3.8760    5.4790 C   0  0  0  0  0  0  0  0  0  0  0  0
  -12.0160    7.8660    4.7150 O   0  0  0  0  0  0  0  0  0  0  0  0
   -6.8990    7.6510    9.7710 O   0  0  0  0  0  0  0  0  0  0  0  0
   -8.6690    4.2706    4.6069 C   0  0  0  0  0  0  0  0  0  0  0  0
   -9.4322    5.5769    4.5342 C   0  0  0  0  0  0  0  0  0  0  0  0
   -8.8606    3.2703    3.6256 C   0  0  0  0  0  0  0  0  0  0  0  0
   -9.8113    3.4473    2.4767 C   0  0  0  0  0  0  0  0  0  0  0  0
   -8.1550    2.1122    3.6957 N   0  0  0  0  0  0  0  0  0  0  0  0
   -7.2759    1.8404    4.6923 C   0  0  0  0  0  0  0  0  0  0  0  0
   -6.5809    0.5880    4.6732 N   0  0  0  0  0  0  0  0  0  0  0  0
   -7.0787    2.7798    5.7208 C   0  0  0  0  0  0  0  0  0  0  0  0
   -6.1807    2.4817    6.8168 C   0  0  0  0  0  0  0  0  0  0  0  0
   -5.4634    2.2454    7.6937 N   0  0  0  0  0  0  0  0  0  0  0  0
  1  3  4  0
  1 14  4  0
  1  2  1  0
  3  4  4  0
  4  5  4  0
  5  6  4  0
  5 22  1  0
  6  7  1  0
  6 14  4  0
  7  8  1  0
  8  9  4  0
  8 12  4  0
  9 10  4  0
 10 11  4  0
 11 12  4  0
 12 13  1  0
 13 14  1  0
 13 15  1  6
 15 16  4  0
 15 20  4  0
 16 17  4  0
 17 18  4  0
 17 21  1  0
 18 19  4  0
 19 20  4  0
 23 24  1  0
 23 25  4  0
 25 26  1  0
 25 27  4  0
 27 28  4  0
 28 29  1  0
 28 30  4  0
 30 31  1  0
 31 32  3  0
  2 23  4  0
  2 30  4  0
M  END
$$$$

     RDKit          3D

 32 36  0  0  0  0  0  0  0  0999 V2000
   -7.6410    4.9930    6.8080 C   0  0  0  0  0  0  0  0  0  1  0  0
   -7.7310    4.0530    5.7140 C   0  0  0  0  0  0  0  0  0  2  0  0
   -6.4520    5.6300    6.8680 N   0  0  0  0  0  0  0  0  0  0  0  0
   -6.2260    6.5240    7.8670 N   0  0  0  0  0  0  0  0  0  0  0  0
   -7.1930    6.7500    8.7820 C   0  0  0  0  0  0  0  0  0  0  0  0
   -8.4240    6.1170    8.7580 C   0  0  0  0  0  0  0  0  0  0  0  0
   -9.3950    6.3570    9.7450 N   0  0  0  0  0  0  0  0  0  0  0  0
  -10.5620    5.6840    9.7600 C   0  0  0  0  0  0  0  0  0  0  0  0
  -11.5770    5.6820   10.5960 N   0  0  0  0  0  0  0  0  0  0  0  0
  -12.4690    4.7490   10.1080 N   0  0  0  0  0  0  0  0  0  0  0  0
  -12.0160    4.1880    8.9920 N   0  0  0  0  0  0  0  0  0  0  0  0
  -10.8400    4.7900    8.7610 N   0  0  0  0  0  0  0  0  0  0  0  0
   -9.9950    4.4790    7.6090 C   0  0  0  0  0  0  0  0  0  0  0  0
   -8.6630    5.2070    7.7200 C   0  0  0  0  0  0  0  0  0  0  0  0
  -10.7490    4.8610    6.3730 C   0  0  0  0  0  0  0  0  0  0  0  0
  -11.0350    6.2020    6.1170 C   0  0  0  0  0  0  0  0  0  0  0  0
  -11.7370    6.5580    4.9650 C   0  0  0  0  0  0  0  0  0  0  0  0
  -12.1550    5.5730    4.0710 C   0  0  0  0  0  0  0  0  0  0  0  0
  -11.8700    4.2310    4.3270 C   0  0  0  0  0  0  0  0  0  0  0  0
  -11.1660    3.8760    5.4790 C   0  0  0  0  0  0  0  0  0  0  0  0
  -12.0160    7.8660    4.7150 O   0  0  0  0  0  0  0  0  0  0  0  0
   -6.8990    7.6510    9.7710 O   0  0  0  0  0  0  0  0  0  0  0  0
   -7.0720    2.7776    5.6965 C   0  0  0  0  0  0  0  0  0  0  0  0
   -6.1432    2.4309    6.8416 C   0  0  0  0  0  0  0  0  0  0  0  0
   -7.2022    1.9089    4.5880 C   0  0  0  0  0  0  0  0  0  0  0  0
   -6.4432    0.6170    4.4896 C   0  0  0  0  0  0  0  0  0  0  0  0
   -8.0529    2.2263    3.5784 N   0  0  0  0  0  0  0  0  0  0  0  0
   -8.7823    3.3697    3.5568 C   0  0  0  0  0  0  0  0  0  0  0  0
   -9.6520    3.6093    2.4442 N   0  0  0  0  0  0  0  0  0  0  0  0
   -8.6586    4.2930    4.6109 C   0  0  0  0  0  0  0  0  0  0  0  0
   -9.3930    5.5405    4.5763 C   0  0  0  0  0  0  0  0  0  0  0  0
   -9.9790    6.5382    4.5505 N   0  0  0  0  0  0  0  0  0  0  0  0
  1  3  4  0
  1 14  4  0
  1  2  1  0
  3  4  4  0
  4  5  4  0
  5  6  4  0
  5 22  1  0
  6  7  1  0
  6 14  4  0
  7  8  1  0
  8  9  4  0
  8 12  4  0
  9 10  4  0
 10 11  4  0
 11 12  4  0
 12 13  1  0
 13 14  1  0
 13 15  1  6
 15 16  4  0
 15 20  4  0
 16 17  4  0
 17 18  4  0
 17 21  1  0
 18 19  4  0
 19 20  4  0
 23 24  1  0
 23 25  4  0
 25 26  1  0
 25 27  4  0
 27 28  4  0
 28 29  1  0
 28 30  4  0
 30 31  1  0
 31 32  3  0
  2 23  4  0
  2 30  4  0
M  END
$$$$

     RDKit          3D

 33 38  0  0  0  0  0  0  0  0999 V2000
   -7.6410    4.9930    6.8080 C   0  0  0  0  0  0  0  0  0  1  0  0
   -7.7310    4.0530    5.7140 C   0  0  0  0  0  0  0  0  0  2  0  0
   -6.4520    5.6300    6.8680 N   0  0  0  0  0  0  0  0  0  0  0  0
   -6.2260    6.5240    7.8670 N   0  0  0  0  0  0  0  0  0  0  0  0
   -7.1930    6.7500    8.7820 C   0  0  0  0  0  0  0  0  0  0  0  0
   -8.4240    6.1170    8.7580 C   0  0  0  0  0  0  0  0  0  0  0  0
   -9.3950    6.3570    9.7450 N   0  0  0  0  0  0  0  0  0  0  0  0
  -10.5620    5.6840    9.7600 C   0  0  0  0  0  0  0  0  0  0  0  0
  -11.5770    5.6820   10.5960 N   0  0  0  0  0  0  0  0  0  0  0  0
  -12.4690    4.7490   10.1080 N   0  0  0  0  0  0  0  0  0  0  0  0
  -12.0160    4.1880    8.9920 N   0  0  0  0  0  0  0  0  0  0  0  0
  -10.8400    4.7900    8.7610 N   0  0  0  0  0  0  0  0  0  0  0  0
   -9.9950    4.4790    7.6090 C   0  0  0  0  0  0  0  0  0  0  0  0
   -8.6630    5.2070    7.7200 C   0  0  0  0  0  0  0  0  0  0  0  0
  -10.7490    4.8610    6.3730 C   0  0  0  0  0  0  0  0  0  0  0  0
  -11.0350    6.2020    6.1170 C   0  0  0  0  0  0  0  0  0  0  0  0
  -11.7370    6.5580    4.9650 C   0  0  0  0  0  0  0  0  0  0  0  0
  -12.1550    5.5730    4.0710 C   0  0  0  0  0  0  0  0  0  0  0  0
  -11.8700    4.2310    4.3270 C   0  0  0  0  0  0  0  0  0  0  0  0
  -11.1660    3.8760    5.4790 C   0  0  0  0  0  0  0  0  0  0  0  0
  -12.0160    7.8660    4.7150 O   0  0  0  0  0  0  0  0  0  0  0  0
   -6.8990    7.6510    9.7710 O   0  0  0  0  0  0  0  0  0  0  0  0
   -6.9546    2.9601    5.5127 N   0  0  0  0  0  0  0  0  0  0  0  0
   -7.4504    2.3026    4.4733 N   0  0  0  0  0  0  0  0  0  0  0  0
   -8.5315    2.9190    4.0196 N   0  0  0  0  0  0  0  0  0  0  0  0
   -8.7548    3.9924    4.7578 N   0  0  0  0  0  0  0  0  0  0  0  0
   -9.8091    4.9380    4.5054 C   0  0  0  0  0  0  0  0  0  0  0  0
  -11.0537    4.4853    4.0377 C   0  0  0  0  0  0  0  0  0  0  0  0
  -12.0884    5.3919    3.7885 C   0  0  0  0  0  0  0  0  0  0  0  0
  -11.8858    6.7602    3.9917 C   0  0  0  0  0  0  0  0  0  0  0  0
  -13.3002    7.9974    3.6511 Br  0  0  0  0  0  0  0  0  0  0  0  0
  -10.6436    7.2223    4.4367 C   0  0  0  0  0  0  0  0  0  0  0  0
   -9.6071    6.3182    4.6866 C   0  0  0  0  0  0  0  0  0  0  0  0
  1  3  4  0
  1 14  4  0
  1  2  1  0
  3  4  4  0
  4  5  4  0
  5  6  4  0
  5 22  1  0
  6  7  1  0
  6 14  4  0
  7  8  1  0
  8  9  4  0
  8 12  4  0
  9 10  4  0
 10 11  4  0
 11 12  4  0
 12 13  1  0
 13 14  1  0
 13 15  1  6
 15 16  4  0
 15 20  4  0
 16 17  4  0
 17 18  4  0
 17 21  1  0
 18 19  4  0
 19 20  4  0
 23 24  4  0
 24 25  4  0
 25 26  4  0
 26 27  1  0
 27 28  4  0
 28 29  4  0
 29 30  4  0
 30 31  1  0
 30 32  4  0
 32 33  4  0
 33 27  4  0
  2 23  4  0
  2 26  4  0
M  END
$$$$

     RDKit          3D

 33 38  0  0  0  0  0  0  0  0999 V2000
   -7.6410    4.9930    6.8080 C   0  0  0  0  0  0  0  0  0  1  0  0
   -7.7310    4.0530    5.7140 C   0  0  0  0  0  0  0  0  0  2  0  0
   -6.4520    5.6300    6.8680 N   0  0  0  0  0  0  0  0  0  0  0  0
   -6.2260    6.5240    7.8670 N   0  0  0  0  0  0  0  0  0  0  0  0
   -7.1930    6.7500    8.7820 C   0  0  0  0  0  0  0  0  0  0  0  0
   -8.4240    6.1170    8.7580 C   0  0  0  0  0  0  0  0  0  0  0  0
   -9.3950    6.3570    9.7450 N   0  0  0  0  0  0  0  0  0  0  0  0
  -10.5620    5.6840    9.7600 C   0  0  0  0  0  0  0  0  0  0  0  0
  -11.5770    5.6820   10.5960 N   0  0  0  0  0  0  0  0  0  0  0  0
  -12.4690    4.7490   10.1080 N   0  0  0  0  0  0  0  0  0  0  0  0
  -12.0160    4.1880    8.9920 N   0  0  0  0  0  0  0  0  0  0  0  0
  -10.8400    4.7900    8.7610 N   0  0  0  0  0  0  0  0  0  0  0  0
   -9.9950    4.4790    7.6090 C   0  0  0  0  0  0  0  0  0  0  0  0
   -8.6630    5.2070    7.7200 C   0  0  0  0  0  0  0  0  0  0  0  0
  -10.7490    4.8610    6.3730 C   0  0  0  0  0  0  0  0  0  0  0  0
  -11.0350    6.2020    6.1170 C   0  0  0  0  0  0  0  0  0  0  0  0
  -11.7370    6.5580    4.9650 C   0  0  0  0  0  0  0  0  0  0  0  0
  -12.1550    5.5730    4.0710 C   0  0  0  0  0  0  0  0  0  0  0  0
  -11.8700    4.2310    4.3270 C   0  0  0  0  0  0  0  0  0  0  0  0
  -11.1660    3.8760    5.4790 C   0  0  0  0  0  0  0  0  0  0  0  0
  -12.0160    7.8660    4.7150 O   0  0  0  0  0  0  0  0  0  0  0  0
   -6.8990    7.6510    9.7710 O   0  0  0  0  0  0  0  0  0  0  0  0
   -6.9546    2.9601    5.5127 N   0  0  0  0  0  0  0  0  0  0  0  0
   -7.4503    2.3025    4.4734 N   0  0  0  0  0  0  0  0  0  0  0  0
   -8.5314    2.9188    4.0196 N   0  0  0  0  0  0  0  0  0  0  0  0
   -8.7546    3.9923    4.7578 N   0  0  0  0  0  0  0  0  0  0  0  0
   -9.8090    4.9379    4.5053 C   0  0  0  0  0  0  0  0  0  0  0  0
   -9.6071    6.3181    4.6865 C   0  0  0  0  0  0  0  0  0  0  0  0
  -10.6436    7.2221    4.4363 C   0  0  0  0  0  0  0  0  0  0  0  0
  -11.8856    6.7601    3.9913 C   0  0  0  0  0  0  0  0  0  0  0  0
  -13.3000    7.9972    3.6506 Br  0  0  0  0  0  0  0  0  0  0  0  0
  -12.0882    5.3918    3.7881 C   0  0  0  0  0  0  0  0  0  0  0  0
  -11.0535    4.4853    4.0375 C   0  0  0  0  0  0  0  0  0  0  0  0
  1  3  4  0
  1 14  4  0
  1  2  1  0
  3  4  4  0
  4  5  4  0
  5  6  4  0
  5 22  1  0
  6  7  1  0
  6 14  4  0
  7  8  1  0
  8  9  4  0
  8 12  4  0
  9 10  4  0
 10 11  4  0
 11 12  4  0
 12 13  1  0
 13 14  1  0
 13 15  1  6
 15 16  4  0
 15 20  4  0
 16 17  4  0
 17 18  4  0
 17 21  1  0
 18 19  4  0
 19 20  4  0
 23 24  4  0
 24 25  4  0
 25 26  4  0
 26 27  1  0
 27 28  4  0
 28 29  4  0
 29 30  4  0
 30 31  1  0
 30 32  4  0
 32 33  4  0
 33 27  4  0
  2 23  4  0
  2 26  4  0
M  END
$$$$

     RDKit          3D

 43 48  0  0  0  0  0  0  0  0999 V2000
   -7.6410    4.9930    6.8080 C   0  0  0  0  0  0  0  0  0  1  0  0
   -7.7310    4.0530    5.7140 C   0  0  0  0  0  0  0  0  0  2  0  0
   -6.4520    5.6300    6.8680 N   0  0  0  0  0  0  0  0  0  0  0  0
   -6.2260    6.5240    7.8670 N   0  0  0  0  0  0  0  0  0  0  0  0
   -7.1930    6.7500    8.7820 C   0  0  0  0  0  0  0  0  0  0  0  0
   -8.4240    6.1170    8.7580 C   0  0  0  0  0  0  0  0  0  0  0  0
   -9.3950    6.3570    9.7450 N   0  0  0  0  0  0  0  0  0  0  0  0
  -10.5620    5.6840    9.7600 C   0  0  0  0  0  0  0  0  0  0  0  0
  -11.5770    5.6820   10.5960 N   0  0  0  0  0  0  0  0  0  0  0  0
  -12.4690    4.7490   10.1080 N   0  0  0  0  0  0  0  0  0  0  0  0
  -12.0160    4.1880    8.9920 N   0  0  0  0  0  0  0  0  0  0  0  0
  -10.8400    4.7900    8.7610 N   0  0  0  0  0  0  0  0  0  0  0  0
   -9.9950    4.4790    7.6090 C   0  0  0  0  0  0  0  0  0  0  0  0
   -8.6630    5.2070    7.7200 C   0  0  0  0  0  0  0  0  0  0  0  0
  -10.7490    4.8610    6.3730 C   0  0  0  0  0  0  0  0  0  0  0  0
  -11.0350    6.2020    6.1170 C   0  0  0  0  0  0  0  0  0  0  0  0
  -11.7370    6.5580    4.9650 C   0  0  0  0  0  0  0  0  0  0  0  0
  -12.1550    5.5730    4.0710 C   0  0  0  0  0  0  0  0  0  0  0  0
  -11.8700    4.2310    4.3270 C   0  0  0  0  0  0  0  0  0  0  0  0
  -11.1660    3.8760    5.4790 C   0  0  0  0  0  0  0  0  0  0  0  0
  -12.0160    7.8660    4.7150 O   0  0  0  0  0  0  0  0  0  0  0  0
   -6.8990    7.6510    9.7710 O   0  0  0  0  0  0  0  0  0  0  0  0
   -6.8492    3.0677    5.3003 C   0  0  0  0  0  0  0  0  0  0  0  0
   -7.3815    2.3062    4.3198 N   0  0  0  0  0  0  0  0  0  0  0  0
   -6.7557    1.2021    3.6298 C   0  0  0  0  0  0  0  0  0  0  0  0
   -5.4995    0.6997    4.0290 C   0  0  0  0  0  0  0  0  0  0  0  0
   -4.9149   -0.3729    3.3476 C   0  0  0  0  0  0  0  0  0  0  0  0
   -5.5724   -0.9591    2.2653 C   0  0  0  0  0  0  0  0  0  0  0  0
   -6.8159   -0.4724    1.8585 C   0  0  0  0  0  0  0  0  0  0  0  0
   -7.4046    0.6008    2.5330 C   0  0  0  0  0  0  0  0  0  0  0  0
   -8.6105    2.7272    4.0575 N   0  0  0  0  0  0  0  0  0  0  0  0
   -8.8864    3.7618    4.8745 C   0  0  0  0  0  0  0  0  0  0  0  0
  -10.1470    4.5165    4.7970 C   0  0  0  0  0  0  0  0  0  0  0  0
  -10.2568    5.6390    5.3619 O   0  0  0  0  0  0  0  0  0  0  0  0
  -11.2142    3.9806    4.0648 O   0  0  0  0  0  0  0  0  0  0  0  0
  -12.4773    4.6305    3.9173 C   0  0  0  0  0  0  0  0  0  0  0  0
  -12.3603    5.8036    2.9350 C   0  0  0  0  0  0  0  0  0  0  0  0
  -13.5041    3.6008    3.5081 C   0  0  0  0  0  0  0  0  0  0  0  0
  -13.9858    2.8591    4.4081 O   0  0  0  0  0  0  0  0  0  0  0  0
  -13.9035    3.4190    2.1340 N   0  0  0  0  0  0  0  0  0  0  0  0
  -14.9079    2.4820    1.7142 C   0  0  0  0  0  0  0  0  0  0  0  0
  -15.2941    2.4262    0.3400 N   0  0  0  0  0  0  0  0  0  0  0  0
  -15.4532    1.7006    2.5441 O   0  0  0  0  0  0  0  0  0  0  0  0
  1  3  4  0
  1 14  4  0
  1  2  1  0
  3  4  4  0
  4  5  4  0
  5  6  4  0
  5 22  1  0
  6  7  1  0
  6 14  4  0
  7  8  1  0
  8  9  4  0
  8 12  4  0
  9 10  4  0
 10 11  4  0
 11 12  4  0
 12 13  1  0
 13 14  1  0
 13 15  1  6
 15 16  4  0
 15 20  4  0
 16 17  4  0
 17 18  4  0
 17 21  1  0
 18 19  4  0
 19 20  4  0
 23 24  4  0
 24 25  1  0
 25 26  4  0
 26 27  4  0
 27 28  4  0
 28 29  4  0
 29 30  4  0
 24 31  4  0
 31 32  4  0
 32 33  1  0
 33 34  2  0
 33 35  1  0
 35 36  1  0
 36 37  1  0
 36 38  1  0
 38 39  2  0
 38 40  1  0
 40 41  1  0
 41 42  1  0
 41 43  2  0
 30 25  4  0
  2 23  4  0
  2 32  4  0
M  END
$$$$

     RDKit          3D

 40 47  0  0  0  0  0  0  0  0999 V2000
   -7.6410    4.9930    6.8080 C   0  0  0  0  0  0  0  0  0  1  0  0
   -7.7310    4.0530    5.7140 C   0  0  0  0  0  0  0  0  0  2  0  0
   -6.4520    5.6300    6.8680 N   0  0  0  0  0  0  0  0  0  0  0  0
   -6.2260    6.5240    7.8670 N   0  0  0  0  0  0  0  0  0  0  0  0
   -7.1930    6.7500    8.7820 C   0  0  0  0  0  0  0  0  0  0  0  0
   -8.4240    6.1170    8.7580 C   0  0  0  0  0  0  0  0  0  0  0  0
   -9.3950    6.3570    9.7450 N   0  0  0  0  0  0  0  0  0  0  0  0
  -10.5620    5.6840    9.7600 C   0  0  0  0  0  0  0  0  0  0  0  0
  -11.5770    5.6820   10.5960 N   0  0  0  0  0  0  0  0  0  0  0  0
  -12.4690    4.7490   10.1080 N   0  0  0  0  0  0  0  0  0  0  0  0
  -12.0160    4.1880    8.9920 N   0  0  0  0  0  0  0  0  0  0  0  0
  -10.8400    4.7900    8.7610 N   0  0  0  0  0  0  0  0  0  0  0  0
   -9.9950    4.4790    7.6090 C   0  0  0  0  0  0  0  0  0  0  0  0
   -8.6630    5.2070    7.7200 C   0  0  0  0  0  0  0  0  0  0  0  0
  -10.7490    4.8610    6.3730 C   0  0  0  0  0  0  0  0  0  0  0  0
  -11.0350    6.2020    6.1170 C   0  0  0  0  0  0  0  0  0  0  0  0
  -11.7370    6.5580    4.9650 C   0  0  0  0  0  0  0  0  0  0  0  0
  -12.1550    5.5730    4.0710 C   0  0  0  0  0  0  0  0  0  0  0  0
  -11.8700    4.2310    4.3270 C   0  0  0  0  0  0  0  0  0  0  0  0
  -11.1660    3.8760    5.4790 C   0  0  0  0  0  0  0  0  0  0  0  0
  -12.0160    7.8660    4.7150 O   0  0  0  0  0  0  0  0  0  0  0  0
   -6.8990    7.6510    9.7710 O   0  0  0  0  0  0  0  0  0  0  0  0
   -6.8460    3.0859    5.3696 N   0  0  0  0  0  0  0  0  0  0  0  0
   -7.2609    2.4417    4.2878 N   0  0  0  0  0  0  0  0  0  0  0  0
   -8.4372    2.9598    3.8986 C   0  0  0  0  0  0  0  0  0  0  0  0
   -8.8194    3.9373    4.7732 C   0  0  0  0  0  0  0  0  0  0  0  0
   -9.9427    4.8839    4.4752 C   0  0  0  0  0  0  0  0  0  0  0  0
  -10.8852    4.2601    3.5137 N   0  0  0  0  0  0  0  0  0  0  0  0
  -11.9292    5.2307    3.1310 C   0  0  0  0  0  0  0  0  0  0  0  0
  -13.1139    4.5198    2.5522 C   0  0  0  0  0  0  0  0  0  0  0  0
  -13.8332    3.5982    3.2472 N   0  0  0  0  0  0  0  0  0  0  0  0
  -14.7689    3.2225    2.3571 C   0  0  0  0  0  0  0  0  0  0  0  0
  -15.7853    2.2862    2.5322 C   0  0  0  0  0  0  0  0  0  0  0  0
  -16.6529    2.0526    1.4478 C   0  0  0  0  0  0  0  0  0  0  0  0
  -16.4831    2.7530    0.2307 C   0  0  0  0  0  0  0  0  0  0  0  0
  -15.4443    3.6925    0.0883 C   0  0  0  0  0  0  0  0  0  0  0  0
  -14.6075    3.8963    1.1831 C   0  0  0  0  0  0  0  0  0  0  0  0
  -13.5622    4.7248    1.2887 N   0  0  0  0  0  0  0  0  0  0  0  0
  -10.1676    3.7541    2.3127 C   0  0  0  0  0  0  0  0  0  0  0  0
   -9.2241    2.5923    2.6834 C   0  0  0  0  0  0  0  0  0  0  0  0
  1  3  4  0
  1 14  4  0
  1  2  1  0
  3  4  4  0
  4  5  4  0
  5  6  4  0
  5 22  1  0
  6  7  1  0
  6 14  4  0
  7  8  1  0
  8  9  4  0
  8 12  4  0
  9 10  4  0
 10 11  4  0
 11 12  4  0
 12 13  1  0
 13 14  1  0
 13 15  1  6
 15 16  4  0
 15 20  4  0
 16 17  4  0
 17 18  4  0
 17 21  1  0
 18 19  4  0
 19 20  4  0
 23 24  4  0
 24 25  4  0
 25 26  4  0
 26 27  1  0
 27 28  1  0
 28 29  1  0
 29 30  1  0
 30 31  4  0
 31 32  4  0
 32 33  4  0
 33 34  4  0
 34 35  4  0
 35 36  4  0
 36 37  4  0
 37 38  4  0
 28 39  1  0
 39 40  1  0
 38 30  4  0
 40 25  1  0
 37 32  4  0
  2 23  4  0
  2 26  4  0
M  END
$$$$

     RDKit          3D

 40 47  0  0  0  0  0  0  0  0999 V2000
   -7.6410    4.9930    6.8080 C   0  0  0  0  0  0  0  0  0  1  0  0
   -7.7310    4.0530    5.7140 C   0  0  0  0  0  0  0  0  0  2  0  0
   -6.4520    5.6300    6.8680 N   0  0  0  0  0  0  0  0  0  0  0  0
   -6.2260    6.5240    7.8670 N   0  0  0  0  0  0  0  0  0  0  0  0
   -7.1930    6.7500    8.7820 C   0  0  0  0  0  0  0  0  0  0  0  0
   -8.4240    6.1170    8.7580 C   0  0  0  0  0  0  0  0  0  0  0  0
   -9.3950    6.3570    9.7450 N   0  0  0  0  0  0  0  0  0  0  0  0
  -10.5620    5.6840    9.7600 C   0  0  0  0  0  0  0  0  0  0  0  0
  -11.5770    5.6820   10.5960 N   0  0  0  0  0  0  0  0  0  0  0  0
  -12.4690    4.7490   10.1080 N   0  0  0  0  0  0  0  0  0  0  0  0
  -12.0160    4.1880    8.9920 N   0  0  0  0  0  0  0  0  0  0  0  0
  -10.8400    4.7900    8.7610 N   0  0  0  0  0  0  0  0  0  0  0  0
   -9.9950    4.4790    7.6090 C   0  0  0  0  0  0  0  0  0  0  0  0
   -8.6630    5.2070    7.7200 C   0  0  0  0  0  0  0  0  0  0  0  0
  -10.7490    4.8610    6.3730 C   0  0  0  0  0  0  0  0  0  0  0  0
  -11.0350    6.2020    6.1170 C   0  0  0  0  0  0  0  0  0  0  0  0
  -11.7370    6.5580    4.9650 C   0  0  0  0  0  0  0  0  0  0  0  0
  -12.1550    5.5730    4.0710 C   0  0  0  0  0  0  0  0  0  0  0  0
  -11.8700    4.2310    4.3270 C   0  0  0  0  0  0  0  0  0  0  0  0
  -11.1660    3.8760    5.4790 C   0  0  0  0  0  0  0  0  0  0  0  0
  -12.0160    7.8660    4.7150 O   0  0  0  0  0  0  0  0  0  0  0  0
   -6.8990    7.6510    9.7710 O   0  0  0  0  0  0  0  0  0  0  0  0
   -6.8499    3.0809    5.3740 N   0  0  0  0  0  0  0  0  0  0  0  0
   -7.2739    2.4257    4.3024 N   0  0  0  0  0  0  0  0  0  0  0  0
   -8.4527    2.9403    3.9158 C   0  0  0  0  0  0  0  0  0  0  0  0
   -8.8257    3.9284    4.7818 C   0  0  0  0  0  0  0  0  0  0  0  0
   -9.9572    4.8694    4.4895 C   0  0  0  0  0  0  0  0  0  0  0  0
  -10.9420    4.2432    3.5730 N   0  0  0  0  0  0  0  0  0  0  0  0
  -11.8211    3.2917    4.2874 C   0  0  0  0  0  0  0  0  0  0  0  0
  -12.9999    2.9164    3.4420 C   0  0  0  0  0  0  0  0  0  0  0  0
  -13.9082    3.8252    2.9965 N   0  0  0  0  0  0  0  0  0  0  0  0
  -14.7590    3.0658    2.2834 C   0  0  0  0  0  0  0  0  0  0  0  0
  -15.8942    3.4786    1.5897 C   0  0  0  0  0  0  0  0  0  0  0  0
  -16.6351    2.4960    0.9048 C   0  0  0  0  0  0  0  0  0  0  0  0
  -16.2257    1.1424    0.9307 C   0  0  0  0  0  0  0  0  0  0  0  0
  -15.0722    0.7604    1.6418 C   0  0  0  0  0  0  0  0  0  0  0  0
  -14.3669    1.7604    2.3072 C   0  0  0  0  0  0  0  0  0  0  0  0
  -13.2523    1.6465    3.0385 N   0  0  0  0  0  0  0  0  0  0  0  0
  -10.2812    3.6468    2.3773 C   0  0  0  0  0  0  0  0  0  0  0  0
   -9.2575    2.5385    2.7237 C   0  0  0  0  0  0  0  0  0  0  0  0
  1  3  4  0
  1 14  4  0
  1  2  1  0
  3  4  4  0
  4  5  4  0
  5  6  4  0
  5 22  1  0
  6  7  1  0
  6 14  4  0
  7  8  1  0
  8  9  4  0
  8 12  4  0
  9 10  4  0
 10 11  4  0
 11 12  4  0
 12 13  1  0
 13 14  1  0
 13 15  1  6
 15 16  4  0
 15 20  4  0
 16 17  4  0
 17 18  4  0
 17 21  1  0
 18 19  4  0
 19 20  4  0
 23 24  4  0
 24 25  4  0
 25 26  4  0
 26 27  1  0
 27 28  1  0
 28 29  1  0
 29 30  1  0
 30 31  4  0
 31 32  4  0
 32 33  4  0
 33 34  4  0
 34 35  4  0
 35 36  4  0
 36 37  4  0
 37 38  4  0
 28 39  1  0
 39 40  1  0
 38 30  4  0
 40 25  1  0
 37 32  4  0
  2 23  4  0
  2 26  4  0
M  END
$$$$

     RDKit          3D

 38 43  0  0  0  0  0  0  0  0999 V2000
   -7.6410    4.9930    6.8080 C   0  0  0  0  0  0  0  0  0  1  0  0
   -7.7310    4.0530    5.7140 C   0  0  0  0  0  0  0  0  0  2  0  0
   -6.4520    5.6300    6.8680 N   0  0  0  0  0  0  0  0  0  0  0  0
   -6.2260    6.5240    7.8670 N   0  0  0  0  0  0  0  0  0  0  0  0
   -7.1930    6.7500    8.7820 C   0  0  0  0  0  0  0  0  0  0  0  0
   -8.4240    6.1170    8.7580 C   0  0  0  0  0  0  0  0  0  0  0  0
   -9.3950    6.3570    9.7450 N   0  0  0  0  0  0  0  0  0  0  0  0
  -10.5620    5.6840    9.7600 C   0  0  0  0  0  0  0  0  0  0  0  0
  -11.5770    5.6820   10.5960 N   0  0  0  0  0  0  0  0  0  0  0  0
  -12.4690    4.7490   10.1080 N   0  0  0  0  0  0  0  0  0  0  0  0
  -12.0160    4.1880    8.9920 N   0  0  0  0  0  0  0  0  0  0  0  0
  -10.8400    4.7900    8.7610 N   0  0  0  0  0  0  0  0  0  0  0  0
   -9.9950    4.4790    7.6090 C   0  0  0  0  0  0  0  0  0  0  0  0
   -8.6630    5.2070    7.7200 C   0  0  0  0  0  0  0  0  0  0  0  0
  -10.7490    4.8610    6.3730 C   0  0  0  0  0  0  0  0  0  0  0  0
  -11.0350    6.2020    6.1170 C   0  0  0  0  0  0  0  0  0  0  0  0
  -11.7370    6.5580    4.9650 C   0  0  0  0  0  0  0  0  0  0  0  0
  -12.1550    5.5730    4.0710 C   0  0  0  0  0  0  0  0  0  0  0  0
  -11.8700    4.2310    4.3270 C   0  0  0  0  0  0  0  0  0  0  0  0
  -11.1660    3.8760    5.4790 C   0  0  0  0  0  0  0  0  0  0  0  0
  -12.0160    7.8660    4.7150 O   0  0  0  0  0  0  0  0  0  0  0  0
   -6.8990    7.6510    9.7710 O   0  0  0  0  0  0  0  0  0  0  0  0
   -6.8904    2.9459    5.5053 C   0  0  0  0  0  0  0  0  0  0  0  0
   -7.0587    2.0250    4.4679 C   0  0  0  0  0  0  0  0  0  0  0  0
   -5.8966    0.7289    4.2492 Cl  0  0  0  0  0  0  0  0  0  0  0  0
   -8.1528    2.1367    3.6066 C   0  0  0  0  0  0  0  0  0  0  0  0
   -9.0759    3.1706    3.7759 C   0  0  0  0  0  0  0  0  0  0  0  0
   -8.9104    4.1114    4.8112 C   0  0  0  0  0  0  0  0  0  0  0  0
   -9.7995    5.1848    4.9842 O   0  0  0  0  0  0  0  0  0  0  0  0
  -10.6200    5.7406    3.9556 C   0  0  0  0  0  0  0  0  0  0  0  0
   -9.7591    6.3424    2.8686 C   0  0  0  0  0  0  0  0  0  0  0  0
   -8.7591    7.2600    3.2362 C   0  0  0  0  0  0  0  0  0  0  0  0
   -7.9208    7.8229    2.2709 C   0  0  0  0  0  0  0  0  0  0  0  0
   -8.0761    7.4835    0.9261 C   0  0  0  0  0  0  0  0  0  0  0  0
   -7.2633    8.0317   -0.0104 F   0  0  0  0  0  0  0  0  0  0  0  0
   -9.0721    6.5821    0.5448 C   0  0  0  0  0  0  0  0  0  0  0  0
   -9.9193    6.0116    1.5028 C   0  0  0  0  0  0  0  0  0  0  0  0
  -11.1671    4.9037    0.9406 Cl  0  0  0  0  0  0  0  0  0  0  0  0
  1  3  4  0
  1 14  4  0
  1  2  1  0
  3  4  4  0
  4  5  4  0
  5  6  4  0
  5 22  1  0
  6  7  1  0
  6 14  4  0
  7  8  1  0
  8  9  4  0
  8 12  4  0
  9 10  4  0
 10 11  4  0
 11 12  4  0
 12 13  1  0
 13 14  1  0
 13 15  1  6
 15 16  4  0
 15 20  4  0
 16 17  4  0
 17 18  4  0
 17 21  1  0
 18 19  4  0
 19 20  4  0
 23 24  4  0
 24 25  1  0
 24 26  4  0
 26 27  4  0
 27 28  4  0
 28 29  1  0
 29 30  1  0
 30 31  1  0
 31 32  4  0
 32 33  4  0
 33 34  4  0
 34 35  1  0
 34 36  4  0
 36 37  4  0
 37 38  1  0
 37 31  4  0
  2 23  4  0
  2 28  4  0
M  END
$$$$

     RDKit          3D

 35 40  0  0  0  0  0  0  0  0999 V2000
   -7.6410    4.9930    6.8080 C   0  0  0  0  0  0  0  0  0  1  0  0
   -7.7310    4.0530    5.7140 C   0  0  0  0  0  0  0  0  0  2  0  0
   -6.4520    5.6300    6.8680 N   0  0  0  0  0  0  0  0  0  0  0  0
   -6.2260    6.5240    7.8670 N   0  0  0  0  0  0  0  0  0  0  0  0
   -7.1930    6.7500    8.7820 C   0  0  0  0  0  0  0  0  0  0  0  0
   -8.4240    6.1170    8.7580 C   0  0  0  0  0  0  0  0  0  0  0  0
   -9.3950    6.3570    9.7450 N   0  0  0  0  0  0  0  0  0  0  0  0
  -10.5620    5.6840    9.7600 C   0  0  0  0  0  0  0  0  0  0  0  0
  -11.5770    5.6820   10.5960 N   0  0  0  0  0  0  0  0  0  0  0  0
  -12.4690    4.7490   10.1080 N   0  0  0  0  0  0  0  0  0  0  0  0
  -12.0160    4.1880    8.9920 N   0  0  0  0  0  0  0  0  0  0  0  0
  -10.8400    4.7900    8.7610 N   0  0  0  0  0  0  0  0  0  0  0  0
   -9.9950    4.4790    7.6090 C   0  0  0  0  0  0  0  0  0  0  0  0
   -8.6630    5.2070    7.7200 C   0  0  0  0  0  0  0  0  0  0  0  0
  -10.7490    4.8610    6.3730 C   0  0  0  0  0  0  0  0  0  0  0  0
  -11.0350    6.2020    6.1170 C   0  0  0  0  0  0  0  0  0  0  0  0
  -11.7370    6.5580    4.9650 C   0  0  0  0  0  0  0  0  0  0  0  0
  -12.1550    5.5730    4.0710 C   0  0  0  0  0  0  0  0  0  0  0  0
  -11.8700    4.2310    4.3270 C   0  0  0  0  0  0  0  0  0  0  0  0
  -11.1660    3.8760    5.4790 C   0  0  0  0  0  0  0  0  0  0  0  0
  -12.0160    7.8660    4.7150 O   0  0  0  0  0  0  0  0  0  0  0  0
   -6.8990    7.6510    9.7710 O   0  0  0  0  0  0  0  0  0  0  0  0
   -6.8097    3.0119    5.4871 C   0  0  0  0  0  0  0  0  0  0  0  0
   -6.9460    2.0759    4.4610 C   0  0  0  0  0  0  0  0  0  0  0  0
   -8.0583    2.1169    3.6215 C   0  0  0  0  0  0  0  0  0  0  0  0
   -9.0357    3.0978    3.7996 C   0  0  0  0  0  0  0  0  0  0  0  0
   -8.9084    4.0561    4.8255 C   0  0  0  0  0  0  0  0  0  0  0  0
   -9.8574    5.0777    5.0098 O   0  0  0  0  0  0  0  0  0  0  0  0
  -10.9344    5.3823    4.1235 C   0  0  0  0  0  0  0  0  0  0  0  0
  -10.4135    5.9683    2.8387 C   0  0  0  0  0  0  0  0  0  0  0  0
   -9.5841    7.1017    2.8703 C   0  0  0  0  0  0  0  0  0  0  0  0
   -9.0950    7.6501    1.6808 C   0  0  0  0  0  0  0  0  0  0  0  0
   -9.4343    7.0751    0.4530 C   0  0  0  0  0  0  0  0  0  0  0  0
  -10.2654    5.9521    0.4129 C   0  0  0  0  0  0  0  0  0  0  0  0
  -10.7567    5.4005    1.6002 C   0  0  0  0  0  0  0  0  0  0  0  0
  1  3  4  0
  1 14  4  0
  1  2  1  0
  3  4  4  0
  4  5  4  0
  5  6  4  0
  5 22  1  0
  6  7  1  0
  6 14  4  0
  7  8  1  0
  8  9  4  0
  8 12  4  0
  9 10  4  0
 10 11  4  0
 11 12  4  0
 12 13  1  0
 13 14  1  0
 13 15  1  6
 15 16  4  0
 15 20  4  0
 16 17  4  0
 17 18  4  0
 17 21  1  0
 18 19  4  0
 19 20  4  0
 23 24  4  0
 24 25  4  0
 25 26  4  0
 26 27  4  0
 27 28  1  0
 28 29  1  0
 29 30  1  0
 30 31  4  0
 31 32  4  0
 32 33  4  0
 33 34  4  0
 34 35  4  0
 35 30  4  0
  2 23  4  0
  2 27  4  0
M  END
$$$$

     RDKit          3D

 41 47  0  0  0  0  0  0  0  0999 V2000
   -7.6410    4.9930    6.8080 C   0  0  0  0  0  0  0  0  0  1  0  0
   -7.7310    4.0530    5.7140 C   0  0  0  0  0  0  0  0  0  2  0  0
   -6.4520    5.6300    6.8680 N   0  0  0  0  0  0  0  0  0  0  0  0
   -6.2260    6.5240    7.8670 N   0  0  0  0  0  0  0  0  0  0  0  0
   -7.1930    6.7500    8.7820 C   0  0  0  0  0  0  0  0  0  0  0  0
   -8.4240    6.1170    8.7580 C   0  0  0  0  0  0  0  0  0  0  0  0
   -9.3950    6.3570    9.7450 N   0  0  0  0  0  0  0  0  0  0  0  0
  -10.5620    5.6840    9.7600 C   0  0  0  0  0  0  0  0  0  0  0  0
  -11.5770    5.6820   10.5960 N   0  0  0  0  0  0  0  0  0  0  0  0
  -12.4690    4.7490   10.1080 N   0  0  0  0  0  0  0  0  0  0  0  0
  -12.0160    4.1880    8.9920 N   0  0  0  0  0  0  0  0  0  0  0  0
  -10.8400    4.7900    8.7610 N   0  0  0  0  0  0  0  0  0  0  0  0
   -9.9950    4.4790    7.6090 C   0  0  0  0  0  0  0  0  0  0  0  0
   -8.6630    5.2070    7.7200 C   0  0  0  0  0  0  0  0  0  0  0  0
  -10.7490    4.8610    6.3730 C   0  0  0  0  0  0  0  0  0  0  0  0
  -11.0350    6.2020    6.1170 C   0  0  0  0  0  0  0  0  0  0  0  0
  -11.7370    6.5580    4.9650 C   0  0  0  0  0  0  0  0  0  0  0  0
  -12.1550    5.5730    4.0710 C   0  0  0  0  0  0  0  0  0  0  0  0
  -11.8700    4.2310    4.3270 C   0  0  0  0  0  0  0  0  0  0  0  0
  -11.1660    3.8760    5.4790 C   0  0  0  0  0  0  0  0  0  0  0  0
  -12.0160    7.8660    4.7150 O   0  0  0  0  0  0  0  0  0  0  0  0
   -6.8990    7.6510    9.7710 O   0  0  0  0  0  0  0  0  0  0  0  0
   -6.9149    2.9809    5.4780 N   0  0  0  0  0  0  0  0  0  0  0  0
   -7.4364    2.3928    4.3875 C   0  0  0  0  0  0  0  0  0  0  0  0
   -6.9540    1.0478    3.5136 S   0  0  0  0  0  0  0  0  0  0  0  0
   -8.2618    1.2323    2.4261 C   0  0  0  0  0  0  0  0  0  0  0  0
   -9.0171    2.3570    2.7930 C   0  0  0  0  0  0  0  0  0  1  0  0
  -10.1798    2.8281    2.0282 C   0  0  0  0  0  0  0  0  0  2  0  0
  -10.1155    4.0351    1.3209 C   0  0  0  0  0  0  0  0  0  0  0  0
  -11.2184    4.4812    0.5880 C   0  0  0  0  0  0  0  0  0  0  0  0
  -12.3988    3.7189    0.5401 C   0  0  0  0  0  0  0  0  0  0  0  0
  -13.5909    4.2160   -0.2558 C   0  0  0  0  0  0  0  0  0  0  0  0
  -14.8030    4.4502    0.6536 C   0  0  0  0  0  0  0  0  0  0  0  0
  -13.9349    3.2514   -1.3967 C   0  0  0  0  0  0  0  0  0  0  0  0
  -12.4479    2.4955    1.2360 C   0  0  0  0  0  0  0  0  0  0  0  0
  -11.3437    2.0520    1.9690 C   0  0  0  0  0  0  0  0  0  0  0  0
   -8.5240    2.9645    3.9037 N   0  0  0  0  0  0  0  0  0  0  0  0
   -8.8024    3.9958    4.7201 C   0  0  0  0  0  0  0  0  0  0  0  0
   -9.9014    5.0038    4.5372 C   0  0  0  0  0  0  0  0  0  0  0  0
   -9.3967    6.1653    3.8007 C   0  0  0  0  0  0  0  0  0  0  0  0
   -8.9977    7.0828    3.2193 N   0  0  0  0  0  0  0  0  0  0  0  0
  1  3  4  0
  1 14  4  0
  1  2  1  0
  3  4  4  0
  4  5  4  0
  5  6  4  0
  5 22  1  0
  6  7  1  0
  6 14  4  0
  7  8  1  0
  8  9  4  0
  8 12  4  0
  9 10  4  0
 10 11  4  0
 11 12  4  0
 12 13  1  0
 13 14  1  0
 13 15  1  6
 15 16  4  0
 15 20  4  0
 16 17  4  0
 17 18  4  0
 17 21  1  0
 18 19  4  0
 19 20  4  0
 23 24  4  0
 24 25  4  0
 25 26  4  0
 26 27  4  0
 27 28  1  0
 28 29  4  0
 29 30  4  0
 30 31  4  0
 31 32  1  0
 32 33  1  0
 32 34  1  0
 31 35  4  0
 35 36  4  0
 27 37  4  0
 37 38  4  0
 38 39  1  0
 39 40  1  0
 40 41  3  0
 37 24  4  0
 36 28  4  0
  2 23  4  0
  2 38  4  0
M  END
$$$$

     RDKit          3D

 36 41  0  0  0  0  0  0  0  0999 V2000
   -7.6410    4.9930    6.8080 C   0  0  0  0  0  0  0  0  0  1  0  0
   -7.7310    4.0530    5.7140 C   0  0  0  0  0  0  0  0  0  2  0  0
   -6.4520    5.6300    6.8680 N   0  0  0  0  0  0  0  0  0  0  0  0
   -6.2260    6.5240    7.8670 N   0  0  0  0  0  0  0  0  0  0  0  0
   -7.1930    6.7500    8.7820 C   0  0  0  0  0  0  0  0  0  0  0  0
   -8.4240    6.1170    8.7580 C   0  0  0  0  0  0  0  0  0  0  0  0
   -9.3950    6.3570    9.7450 N   0  0  0  0  0  0  0  0  0  0  0  0
  -10.5620    5.6840    9.7600 C   0  0  0  0  0  0  0  0  0  0  0  0
  -11.5770    5.6820   10.5960 N   0  0  0  0  0  0  0  0  0  0  0  0
  -12.4690    4.7490   10.1080 N   0  0  0  0  0  0  0  0  0  0  0  0
  -12.0160    4.1880    8.9920 N   0  0  0  0  0  0  0  0  0  0  0  0
  -10.8400    4.7900    8.7610 N   0  0  0  0  0  0  0  0  0  0  0  0
   -9.9950    4.4790    7.6090 C   0  0  0  0  0  0  0  0  0  0  0  0
   -8.6630    5.2070    7.7200 C   0  0  0  0  0  0  0  0  0  0  0  0
  -10.7490    4.8610    6.3730 C   0  0  0  0  0  0  0  0  0  0  0  0
  -11.0350    6.2020    6.1170 C   0  0  0  0  0  0  0  0  0  0  0  0
  -11.7370    6.5580    4.9650 C   0  0  0  0  0  0  0  0  0  0  0  0
  -12.1550    5.5730    4.0710 C   0  0  0  0  0  0  0  0  0  0  0  0
  -11.8700    4.2310    4.3270 C   0  0  0  0  0  0  0  0  0  0  0  0
  -11.1660    3.8760    5.4790 C   0  0  0  0  0  0  0  0  0  0  0  0
  -12.0160    7.8660    4.7150 O   0  0  0  0  0  0  0  0  0  0  0  0
   -6.8990    7.6510    9.7710 O   0  0  0  0  0  0  0  0  0  0  0  0
   -6.8379    3.0852    5.3895 N   0  0  0  0  0  0  0  0  0  0  0  0
   -7.3442    2.4456    4.3151 C   0  0  0  0  0  0  0  0  0  0  0  0
   -6.7231    1.4046    3.6144 C   0  0  0  0  0  0  0  0  0  0  0  0
   -5.3738    0.8869    4.0170 C   0  0  0  0  0  0  0  0  0  0  0  0
   -7.3863    0.9054    2.4763 C   0  0  0  0  0  0  0  0  0  0  0  0
   -8.6298    1.4343    2.0865 C   0  0  0  0  0  0  0  0  0  0  0  0
   -9.2064    2.4696    2.8334 C   0  0  0  0  0  0  0  0  0  0  0  0
   -8.5382    2.9280    3.9254 N   0  0  0  0  0  0  0  0  0  0  0  0
   -8.8426    3.9170    4.7866 C   0  0  0  0  0  0  0  0  0  0  0  0
   -9.9939    4.8791    4.6188 C   0  0  0  0  0  0  0  0  0  0  0  0
   -9.6759    5.9584    3.5768 C   0  0  0  0  0  0  0  0  0  0  0  0
   -8.5960    6.8861    4.0459 C   0  0  0  0  0  0  0  0  0  0  0  0
   -8.7873    7.6303    5.0437 O   0  0  0  0  0  0  0  0  0  0  0  0
   -7.3798    6.9331    3.3764 O   0  0  0  0  0  0  0  0  0  0  0  0
  1  3  4  0
  1 14  4  0
  1  2  1  0
  3  4  4  0
  4  5  4  0
  5  6  4  0
  5 22  1  0
  6  7  1  0
  6 14  4  0
  7  8  1  0
  8  9  4  0
  8 12  4  0
  9 10  4  0
 10 11  4  0
 11 12  4  0
 12 13  1  0
 13 14  1  0
 13 15  1  6
 15 16  4  0
 15 20  4  0
 16 17  4  0
 17 18  4  0
 17 21  1  0
 18 19  4  0
 19 20  4  0
 23 24  4  0
 24 25  4  0
 25 26  1  0
 25 27  4  0
 27 28  4  0
 28 29  4  0
 29 30  4  0
 30 31  4  0
 31 32  1  0
 32 33  1  0
 33 34  1  0
 34 35  2  0
 34 36  1  0
 30 24  4  0
  2 23  4  0
  2 31  4  0
M  CHG  1  36  -1
M  END
$$$$

     RDKit          3D

 50 56  0  0  0  0  0  0  0  0999 V2000
   -7.6410    4.9930    6.8080 C   0  0  0  0  0  0  0  0  0  1  0  0
   -7.7310    4.0530    5.7140 C   0  0  0  0  0  0  0  0  0  2  0  0
   -6.4520    5.6300    6.8680 N   0  0  0  0  0  0  0  0  0  0  0  0
   -6.2260    6.5240    7.8670 N   0  0  0  0  0  0  0  0  0  0  0  0
   -7.1930    6.7500    8.7820 C   0  0  0  0  0  0  0  0  0  0  0  0
   -8.4240    6.1170    8.7580 C   0  0  0  0  0  0  0  0  0  0  0  0
   -9.3950    6.3570    9.7450 N   0  0  0  0  0  0  0  0  0  0  0  0
  -10.5620    5.6840    9.7600 C   0  0  0  0  0  0  0  0  0  0  0  0
  -11.5770    5.6820   10.5960 N   0  0  0  0  0  0  0  0  0  0  0  0
  -12.4690    4.7490   10.1080 N   0  0  0  0  0  0  0  0  0  0  0  0
  -12.0160    4.1880    8.9920 N   0  0  0  0  0  0  0  0  0  0  0  0
  -10.8400    4.7900    8.7610 N   0  0  0  0  0  0  0  0  0  0  0  0
   -9.9950    4.4790    7.6090 C   0  0  0  0  0  0  0  0  0  0  0  0
   -8.6630    5.2070    7.7200 C   0  0  0  0  0  0  0  0  0  0  0  0
  -10.7490    4.8610    6.3730 C   0  0  0  0  0  0  0  0  0  0  0  0
  -11.0350    6.2020    6.1170 C   0  0  0  0  0  0  0  0  0  0  0  0
  -11.7370    6.5580    4.9650 C   0  0  0  0  0  0  0  0  0  0  0  0
  -12.1550    5.5730    4.0710 C   0  0  0  0  0  0  0  0  0  0  0  0
  -11.8700    4.2310    4.3270 C   0  0  0  0  0  0  0  0  0  0  0  0
  -11.1660    3.8760    5.4790 C   0  0  0  0  0  0  0  0  0  0  0  0
  -12.0160    7.8660    4.7150 O   0  0  0  0  0  0  0  0  0  0  0  0
   -6.8990    7.6510    9.7710 O   0  0  0  0  0  0  0  0  0  0  0  0
   -8.6702    4.2865    4.6185 C   0  0  0  0  0  0  0  0  0  0  0  0
   -9.5433    5.8698    4.5273 S   0  0  0  0  0  0  0  0  0  0  0  0
   -8.5494    6.6134    3.1753 C   0  0  0  0  0  0  0  0  0  0  0  0
   -7.0741    6.8277    3.5560 C   0  0  0  0  0  0  0  0  0  0  0  0
   -6.3838    5.6118    3.4101 O   0  0  0  0  0  0  0  0  0  0  0  0
   -6.4276    7.8956    2.6572 C   0  0  0  0  0  0  0  0  0  0  0  0
   -5.0390    8.1508    3.1088 N   0  0  0  0  0  0  0  0  0  0  0  0
   -4.7929    9.5512    3.5156 C   0  0  0  0  0  0  0  0  0  0  0  0
   -4.6731   10.4880    2.3062 C   0  0  0  0  0  0  0  0  0  0  0  0
   -3.6731    9.9565    1.3750 N   0  0  0  0  0  0  0  0  0  0  0  0
   -2.6176   10.7991    0.8585 C   0  0  0  0  0  0  0  0  0  0  0  0
   -1.4120   10.2250    0.1771 C   0  0  0  0  0  0  0  0  0  0  0  0
   -2.7108   12.0533    0.9551 O   0  0  0  0  0  0  0  0  0  0  0  0
   -3.8597    8.5677    0.9389 C   0  0  0  0  0  0  0  0  0  0  0  0
   -4.0123    7.6561    2.1657 C   0  0  0  0  0  0  0  0  0  0  0  0
   -8.8826    3.3220    3.6226 C   0  0  0  0  0  0  0  0  0  0  0  0
   -9.6992    3.5452    2.6877 O   0  0  0  0  0  0  0  0  0  0  0  0
   -8.2065    2.1441    3.6507 N   0  0  0  0  0  0  0  0  0  0  0  0
   -7.3271    1.8428    4.6475 C   0  0  0  0  0  0  0  0  0  0  0  0
   -6.6646    0.6061    4.6442 C   0  0  0  0  0  0  0  0  0  0  0  0
   -5.7807    0.2729    5.6697 C   0  0  0  0  0  0  0  0  0  0  0  0
   -5.5323    1.1738    6.7162 C   0  0  0  0  0  0  0  0  0  0  0  0
   -4.6185    0.7990    7.8565 C   0  0  0  0  0  0  0  0  0  0  0  0
   -3.7241   -0.1880    7.4767 F   0  0  0  0  0  0  0  0  0  0  0  0
   -5.3786    0.3332    8.9131 F   0  0  0  0  0  0  0  0  0  0  0  0
   -3.8926    1.9025    8.2733 F   0  0  0  0  0  0  0  0  0  0  0  0
   -6.2123    2.4037    6.7383 C   0  0  0  0  0  0  0  0  0  0  0  0
   -7.0979    2.7633    5.6980 C   0  0  0  0  0  0  0  0  0  0  0  0
  1  3  4  0
  1 14  4  0
  1  2  1  0
  3  4  4  0
  4  5  4  0
  5  6  4  0
  5 22  1  0
  6  7  1  0
  6 14  4  0
  7  8  1  0
  8  9  4  0
  8 12  4  0
  9 10  4  0
 10 11  4  0
 11 12  4  0
 12 13  1  0
 13 14  1  0
 13 15  1  6
 15 16  4  0
 15 20  4  0
 16 17  4  0
 17 18  4  0
 17 21  1  0
 18 19  4  0
 19 20  4  0
 23 24  1  0
 24 25  1  0
 25 26  1  0
 26 27  1  0
 26 28  1  0
 28 29  1  0
 29 30  1  0
 30 31  1  0
 31 32  1  0
 32 33  1  0
 33 34  1  0
 33 35  2  0
 32 36  1  0
 36 37  1  0
 23 38  4  0
 38 39  2  0
 38 40  4  0
 40 41  4  0
 41 42  4  0
 42 43  4  0
 43 44  4  0
 44 45  1  0
 45 46  1  0
 45 47  1  0
 45 48  1  0
 44 49  4  0
 49 50  4  0
 37 29  1  0
 50 41  4  0
  2 23  4  0
  2 50  4  0
M  END
$$$$

     RDKit          3D

 50 58  0  0  0  0  0  0  0  0999 V2000
   -7.6410    4.9930    6.8080 C   0  0  0  0  0  0  0  0  0  1  0  0
   -7.7310    4.0530    5.7140 C   0  0  0  0  0  0  0  0  0  2  0  0
   -6.4520    5.6300    6.8680 N   0  0  0  0  0  0  0  0  0  0  0  0
   -6.2260    6.5240    7.8670 N   0  0  0  0  0  0  0  0  0  0  0  0
   -7.1930    6.7500    8.7820 C   0  0  0  0  0  0  0  0  0  0  0  0
   -8.4240    6.1170    8.7580 C   0  0  0  0  0  0  0  0  0  0  0  0
   -9.3950    6.3570    9.7450 N   0  0  0  0  0  0  0  0  0  0  0  0
  -10.5620    5.6840    9.7600 C   0  0  0  0  0  0  0  0  0  0  0  0
  -11.5770    5.6820   10.5960 N   0  0  0  0  0  0  0  0  0  0  0  0
  -12.4690    4.7490   10.1080 N   0  0  0  0  0  0  0  0  0  0  0  0
  -12.0160    4.1880    8.9920 N   0  0  0  0  0  0  0  0  0  0  0  0
  -10.8400    4.7900    8.7610 N   0  0  0  0  0  0  0  0  0  0  0  0
   -9.9950    4.4790    7.6090 C   0  0  0  0  0  0  0  0  0  0  0  0
   -8.6630    5.2070    7.7200 C   0  0  0  0  0  0  0  0  0  0  0  0
  -10.7490    4.8610    6.3730 C   0  0  0  0  0  0  0  0  0  0  0  0
  -11.0350    6.2020    6.1170 C   0  0  0  0  0  0  0  0  0  0  0  0
  -11.7370    6.5580    4.9650 C   0  0  0  0  0  0  0  0  0  0  0  0
  -12.1550    5.5730    4.0710 C   0  0  0  0  0  0  0  0  0  0  0  0
  -11.8700    4.2310    4.3270 C   0  0  0  0  0  0  0  0  0  0  0  0
  -11.1660    3.8760    5.4790 C   0  0  0  0  0  0  0  0  0  0  0  0
  -12.0160    7.8660    4.7150 O   0  0  0  0  0  0  0  0  0  0  0  0
   -6.8990    7.6510    9.7710 O   0  0  0  0  0  0  0  0  0  0  0  0
   -6.8787    2.9975    5.5985 N   0  0  0  0  0  0  0  0  0  0  0  0
   -6.9570    2.0466    4.6692 N   0  0  0  0  0  0  0  0  0  0  0  0
   -7.9575    2.0278    3.7478 C   0  0  0  0  0  0  0  0  0  0  0  0
   -7.9777    0.9912    2.7512 N   0  0  0  0  0  0  0  0  0  0  0  0
   -7.6445    1.2923    1.3598 C   0  0  0  0  0  0  0  0  0  0  0  0
   -6.3737    0.5344    0.9724 C   0  0  0  0  0  0  0  0  0  0  0  0
   -6.5363   -0.9197    1.2317 N   0  0  0  0  0  0  0  0  0  0  0  0
   -5.3420   -1.6804    0.7624 C   0  0  0  0  0  0  0  0  0  0  0  0
   -5.4671   -3.1744    1.0239 C   0  0  0  0  0  0  0  0  0  0  0  0
   -6.6491   -3.8738    0.7096 C   0  0  0  0  0  0  0  0  0  0  0  0
   -6.7408   -5.2491    0.9425 C   0  0  0  0  0  0  0  0  0  0  0  0
   -5.6566   -5.9418    1.4858 C   0  0  0  0  0  0  0  0  0  0  0  0
   -4.4785   -5.2600    1.7989 C   0  0  0  0  0  0  0  0  0  0  0  0
   -4.3816   -3.8843    1.5693 C   0  0  0  0  0  0  0  0  0  0  0  0
   -5.0850   -1.4926   -0.7257 C   0  0  0  0  0  0  0  0  0  0  0  0
   -3.7773   -1.2541   -1.1871 C   0  0  0  0  0  0  0  0  0  0  0  0
   -3.5263   -1.0940   -2.5530 C   0  0  0  0  0  0  0  0  0  0  0  0
   -4.5748   -1.1717   -3.4724 C   0  0  0  0  0  0  0  0  0  0  0  0
   -5.8772   -1.4107   -3.0276 C   0  0  0  0  0  0  0  0  0  0  0  0
   -6.1338   -1.5727   -1.6631 C   0  0  0  0  0  0  0  0  0  0  0  0
   -6.7618   -1.1277    2.6859 C   0  0  0  0  0  0  0  0  0  0  0  0
   -8.0392   -0.4160    3.1411 C   0  0  0  0  0  0  0  0  0  0  0  0
   -8.9360    3.0413    3.7722 C   0  0  0  0  0  0  0  0  0  0  0  0
  -10.0068    3.0561    2.8564 C   0  0  0  0  0  0  0  0  0  0  0  0
  -10.9416    4.0918    2.8782 C   0  0  0  0  0  0  0  0  0  0  0  0
  -10.8225    5.1235    3.8073 C   0  0  0  0  0  0  0  0  0  0  0  0
   -9.7804    5.1159    4.7358 C   0  0  0  0  0  0  0  0  0  0  0  0
   -8.8403    4.0635    4.7493 C   0  0  0  0  0  0  0  0  0  0  0  0
  1  3  4  0
  1 14  4  0
  1  2  1  0
  3  4  4  0
  4  5  4  0
  5  6  4  0
  5 22  1  0
  6  7  1  0
  6 14  4  0
  7  8  1  0
  8  9  4  0
  8 12  4  0
  9 10  4  0
 10 11  4  0
 11 12  4  0
 12 13  1  0
 13 14  1  0
 13 15  1  6
 15 16  4  0
 15 20  4  0
 16 17  4  0
 17 18  4  0
 17 21  1  0
 18 19  4  0
 19 20  4  0
 23 24  4  0
 24 25  4  0
 25 26  1  0
 26 27  1  0
 27 28  1  0
 28 29  1  0
 29 30  1  0
 30 31  1  0
 31 32  4  0
 32 33  4  0
 33 34  4  0
 34 35  4  0
 35 36  4  0
 30 37  1  0
 37 38  4  0
 38 39  4  0
 39 40  4  0
 40 41  4  0
 41 42  4  0
 29 43  1  0
 43 44  1  0
 25 45  4  0
 45 46  4  0
 46 47  4  0
 47 48  4  0
 48 49  4  0
 49 50  4  0
 44 26  1  0
 50 45  4  0
 36 31  4  0
 42 37  4  0
  2 23  4  0
  2 50  4  0
M  CHG  1  24   1
M  END
$$$$

     RDKit          3D

 50 58  0  0  0  0  0  0  0  0999 V2000
   -7.6410    4.9930    6.8080 C   0  0  0  0  0  0  0  0  0  1  0  0
   -7.7310    4.0530    5.7140 C   0  0  0  0  0  0  0  0  0  2  0  0
   -6.4520    5.6300    6.8680 N   0  0  0  0  0  0  0  0  0  0  0  0
   -6.2260    6.5240    7.8670 N   0  0  0  0  0  0  0  0  0  0  0  0
   -7.1930    6.7500    8.7820 C   0  0  0  0  0  0  0  0  0  0  0  0
   -8.4240    6.1170    8.7580 C   0  0  0  0  0  0  0  0  0  0  0  0
   -9.3950    6.3570    9.7450 N   0  0  0  0  0  0  0  0  0  0  0  0
  -10.5620    5.6840    9.7600 C   0  0  0  0  0  0  0  0  0  0  0  0
  -11.5770    5.6820   10.5960 N   0  0  0  0  0  0  0  0  0  0  0  0
  -12.4690    4.7490   10.1080 N   0  0  0  0  0  0  0  0  0  0  0  0
  -12.0160    4.1880    8.9920 N   0  0  0  0  0  0  0  0  0  0  0  0
  -10.8400    4.7900    8.7610 N   0  0  0  0  0  0  0  0  0  0  0  0
   -9.9950    4.4790    7.6090 C   0  0  0  0  0  0  0  0  0  0  0  0
   -8.6630    5.2070    7.7200 C   0  0  0  0  0  0  0  0  0  0  0  0
  -10.7490    4.8610    6.3730 C   0  0  0  0  0  0  0  0  0  0  0  0
  -11.0350    6.2020    6.1170 C   0  0  0  0  0  0  0  0  0  0  0  0
  -11.7370    6.5580    4.9650 C   0  0  0  0  0  0  0  0  0  0  0  0
  -12.1550    5.5730    4.0710 C   0  0  0  0  0  0  0  0  0  0  0  0
  -11.8700    4.2310    4.3270 C   0  0  0  0  0  0  0  0  0  0  0  0
  -11.1660    3.8760    5.4790 C   0  0  0  0  0  0  0  0  0  0  0  0
  -12.0160    7.8660    4.7150 O   0  0  0  0  0  0  0  0  0  0  0  0
   -6.8990    7.6510    9.7710 O   0  0  0  0  0  0  0  0  0  0  0  0
   -6.9095    2.9697    5.6205 N   0  0  0  0  0  0  0  0  0  0  0  0
   -7.0166    2.0002    4.7120 N   0  0  0  0  0  0  0  0  0  0  0  0
   -8.0316    1.9787    3.8066 C   0  0  0  0  0  0  0  0  0  0  0  0
   -8.1067    0.8875    2.8754 N   0  0  0  0  0  0  0  0  0  0  0  0
   -7.6564    1.0878    1.4934 C   0  0  0  0  0  0  0  0  0  0  0  0
   -7.1859   -0.2379    0.8910 C   0  0  0  0  0  0  0  0  0  0  0  0
   -8.2244   -1.2731    1.0910 N   0  0  0  0  0  0  0  0  0  0  0  0
   -8.0140   -2.5245    0.3074 C   0  0  0  0  0  0  0  0  0  0  0  0
   -6.5671   -3.0162    0.3462 C   0  0  0  0  0  0  0  0  0  0  0  0
   -6.1653   -3.9226    1.3458 C   0  0  0  0  0  0  0  0  0  0  0  0
   -4.8432   -4.3725    1.4056 C   0  0  0  0  0  0  0  0  0  0  0  0
   -3.9084   -3.9230    0.4705 C   0  0  0  0  0  0  0  0  0  0  0  0
   -4.2941   -3.0250   -0.5272 C   0  0  0  0  0  0  0  0  0  0  0  0
   -5.6144   -2.5745   -0.5935 C   0  0  0  0  0  0  0  0  0  0  0  0
   -8.5605   -2.4119   -1.1130 C   0  0  0  0  0  0  0  0  0  0  0  0
   -8.4962   -3.5346   -1.9612 C   0  0  0  0  0  0  0  0  0  0  0  0
   -9.0309   -3.4839   -3.2521 C   0  0  0  0  0  0  0  0  0  0  0  0
   -9.6447   -2.3169   -3.7123 C   0  0  0  0  0  0  0  0  0  0  0  0
   -9.7426   -1.2035   -2.8748 C   0  0  0  0  0  0  0  0  0  0  0  0
   -9.2156   -1.2488   -1.5810 C   0  0  0  0  0  0  0  0  0  0  0  0
   -8.4105   -1.5264    2.5334 C   0  0  0  0  0  0  0  0  0  0  0  0
   -8.9509   -0.2631    3.2047 C   0  0  0  0  0  0  0  0  0  0  0  0
   -8.9796    3.0242    3.8051 C   0  0  0  0  0  0  0  0  0  0  0  0
  -10.0559    3.0537    2.8936 C   0  0  0  0  0  0  0  0  0  0  0  0
  -10.9475    4.1256    2.8860 C   0  0  0  0  0  0  0  0  0  0  0  0
  -10.7835    5.1802    3.7824 C   0  0  0  0  0  0  0  0  0  0  0  0
   -9.7398    5.1593    4.7089 C   0  0  0  0  0  0  0  0  0  0  0  0
   -8.8409    4.0725    4.7495 C   0  0  0  0  0  0  0  0  0  0  0  0
  1  3  4  0
  1 14  4  0
  1  2  1  0
  3  4  4  0
  4  5  4  0
  5  6  4  0
  5 22  1  0
  6  7  1  0
  6 14  4  0
  7  8  1  0
  8  9  4  0
  8 12  4  0
  9 10  4  0
 10 11  4  0
 11 12  4  0
 12 13  1  0
 13 14  1  0
 13 15  1  6
 15 16  4  0
 15 20  4  0
 16 17  4  0
 17 18  4  0
 17 21  1  0
 18 19  4  0
 19 20  4  0
 23 24  4  0
 24 25  4  0
 25 26  1  0
 26 27  1  0
 27 28  1  0
 28 29  1  0
 29 30  1  0
 30 31  1  0
 31 32  4  0
 32 33  4  0
 33 34  4  0
 34 35  4  0
 35 36  4  0
 30 37  1  0
 37 38  4  0
 38 39  4  0
 39 40  4  0
 40 41  4  0
 41 42  4  0
 29 43  1  0
 43 44  1  0
 25 45  4  0
 45 46  4  0
 46 47  4  0
 47 48  4  0
 48 49  4  0
 49 50  4  0
 44 26  1  0
 50 45  4  0
 36 31  4  0
 42 37  4  0
  2 23  4  0
  2 50  4  0
M  CHG  1  24   1
M  END
$$$$

     RDKit          3D

 50 58  0  0  0  0  0  0  0  0999 V2000
   -7.6410    4.9930    6.8080 C   0  0  0  0  0  0  0  0  0  1  0  0
   -7.7310    4.0530    5.7140 C   0  0  0  0  0  0  0  0  0  2  0  0
   -6.4520    5.6300    6.8680 N   0  0  0  0  0  0  0  0  0  0  0  0
   -6.2260    6.5240    7.8670 N   0  0  0  0  0  0  0  0  0  0  0  0
   -7.1930    6.7500    8.7820 C   0  0  0  0  0  0  0  0  0  0  0  0
   -8.4240    6.1170    8.7580 C   0  0  0  0  0  0  0  0  0  0  0  0
   -9.3950    6.3570    9.7450 N   0  0  0  0  0  0  0  0  0  0  0  0
  -10.5620    5.6840    9.7600 C   0  0  0  0  0  0  0  0  0  0  0  0
  -11.5770    5.6820   10.5960 N   0  0  0  0  0  0  0  0  0  0  0  0
  -12.4690    4.7490   10.1080 N   0  0  0  0  0  0  0  0  0  0  0  0
  -12.0160    4.1880    8.9920 N   0  0  0  0  0  0  0  0  0  0  0  0
  -10.8400    4.7900    8.7610 N   0  0  0  0  0  0  0  0  0  0  0  0
   -9.9950    4.4790    7.6090 C   0  0  0  0  0  0  0  0  0  0  0  0
   -8.6630    5.2070    7.7200 C   0  0  0  0  0  0  0  0  0  0  0  0
  -10.7490    4.8610    6.3730 C   0  0  0  0  0  0  0  0  0  0  0  0
  -11.0350    6.2020    6.1170 C   0  0  0  0  0  0  0  0  0  0  0  0
  -11.7370    6.5580    4.9650 C   0  0  0  0  0  0  0  0  0  0  0  0
  -12.1550    5.5730    4.0710 C   0  0  0  0  0  0  0  0  0  0  0  0
  -11.8700    4.2310    4.3270 C   0  0  0  0  0  0  0  0  0  0  0  0
  -11.1660    3.8760    5.4790 C   0  0  0  0  0  0  0  0  0  0  0  0
  -12.0160    7.8660    4.7150 O   0  0  0  0  0  0  0  0  0  0  0  0
   -6.8990    7.6510    9.7710 O   0  0  0  0  0  0  0  0  0  0  0  0
   -6.7830    3.1046    5.4885 N   0  0  0  0  0  0  0  0  0  0  0  0
   -6.8429    2.1584    4.5551 N   0  0  0  0  0  0  0  0  0  0  0  0
   -7.9239    2.0233    3.7364 C   0  0  0  0  0  0  0  0  0  0  0  0
   -7.8964    1.0260    2.6985 N   0  0  0  0  0  0  0  0  0  0  0  0
   -7.7816    1.4455    1.2972 C   0  0  0  0  0  0  0  0  0  0  0  0
   -7.7277    0.2235    0.3738 C   0  0  0  0  0  0  0  0  0  0  0  0
   -6.5951   -0.6731    0.7229 N   0  0  0  0  0  0  0  0  0  0  0  0
   -6.6755   -1.9698   -0.0058 C   0  0  0  0  0  0  0  0  0  0  0  0
   -5.4304   -2.8191    0.2107 C   0  0  0  0  0  0  0  0  0  0  0  0
   -4.1389   -2.2904    0.0006 C   0  0  0  0  0  0  0  0  0  0  0  0
   -3.0063   -3.0983    0.1466 C   0  0  0  0  0  0  0  0  0  0  0  0
   -3.1484   -4.4343    0.5205 C   0  0  0  0  0  0  0  0  0  0  0  0
   -4.4226   -4.9624    0.7654 C   0  0  0  0  0  0  0  0  0  0  0  0
   -5.5598   -4.1654    0.6058 C   0  0  0  0  0  0  0  0  0  0  0  0
   -6.8682   -1.8153   -1.5088 C   0  0  0  0  0  0  0  0  0  0  0  0
   -6.1131   -0.8946   -2.2613 C   0  0  0  0  0  0  0  0  0  0  0  0
   -6.2306   -0.8485   -3.6546 C   0  0  0  0  0  0  0  0  0  0  0  0
   -7.1019   -1.7207   -4.3106 C   0  0  0  0  0  0  0  0  0  0  0  0
   -7.8781   -2.6175   -3.5724 C   0  0  0  0  0  0  0  0  0  0  0  0
   -7.7615   -2.6714   -2.1805 C   0  0  0  0  0  0  0  0  0  0  0  0
   -6.4468   -0.8895    2.1985 C   0  0  0  0  0  0  0  0  0  0  0  0
   -7.6305   -0.3728    3.0339 C   0  0  0  0  0  0  0  0  0  0  0  0
   -9.0231    2.8870    3.9065 C   0  0  0  0  0  0  0  0  0  0  0  0
  -10.2092    2.7273    3.1644 C   0  0  0  0  0  0  0  0  0  0  0  0
  -11.2437    3.6592    3.2826 C   0  0  0  0  0  0  0  0  0  0  0  0
  -11.1100    4.7568    4.1323 C   0  0  0  0  0  0  0  0  0  0  0  0
   -9.9663    4.8981    4.9185 C   0  0  0  0  0  0  0  0  0  0  0  0
   -8.9328    3.9361    4.8596 C   0  0  0  0  0  0  0  0  0  0  0  0
  1  3  4  0
  1 14  4  0
  1  2  1  0
  3  4  4  0
  4  5  4  0
  5  6  4  0
  5 22  1  0
  6  7  1  0
  6 14  4  0
  7  8  1  0
  8  9  4  0
  8 12  4  0
  9 10  4  0
 10 11  4  0
 11 12  4  0
 12 13  1  0
 13 14  1  0
 13 15  1  6
 15 16  4  0
 15 20  4  0
 16 17  4  0
 17 18  4  0
 17 21  1  0
 18 19  4  0
 19 20  4  0
 23 24  4  0
 24 25  4  0
 25 26  1  0
 26 27  1  0
 27 28  1  0
 28 29  1  0
 29 30  1  0
 30 31  1  0
 31 32  4  0
 32 33  4  0
 33 34  4  0
 34 35  4  0
 35 36  4  0
 30 37  1  0
 37 38  4  0
 38 39  4  0
 39 40  4  0
 40 41  4  0
 41 42  4  0
 29 43  1  0
 43 44  1  0
 25 45  4  0
 45 46  4  0
 46 47  4  0
 47 48  4  0
 48 49  4  0
 49 50  4  0
 44 26  1  0
 50 45  4  0
 36 31  4  0
 42 37  4  0
  2 23  4  0
  2 50  4  0
M  CHG  1  24   1
M  END
$$$$

     RDKit          3D

 50 58  0  0  0  0  0  0  0  0999 V2000
   -7.6410    4.9930    6.8080 C   0  0  0  0  0  0  0  0  0  1  0  0
   -7.7310    4.0530    5.7140 C   0  0  0  0  0  0  0  0  0  2  0  0
   -6.4520    5.6300    6.8680 N   0  0  0  0  0  0  0  0  0  0  0  0
   -6.2260    6.5240    7.8670 N   0  0  0  0  0  0  0  0  0  0  0  0
   -7.1930    6.7500    8.7820 C   0  0  0  0  0  0  0  0  0  0  0  0
   -8.4240    6.1170    8.7580 C   0  0  0  0  0  0  0  0  0  0  0  0
   -9.3950    6.3570    9.7450 N   0  0  0  0  0  0  0  0  0  0  0  0
  -10.5620    5.6840    9.7600 C   0  0  0  0  0  0  0  0  0  0  0  0
  -11.5770    5.6820   10.5960 N   0  0  0  0  0  0  0  0  0  0  0  0
  -12.4690    4.7490   10.1080 N   0  0  0  0  0  0  0  0  0  0  0  0
  -12.0160    4.1880    8.9920 N   0  0  0  0  0  0  0  0  0  0  0  0
  -10.8400    4.7900    8.7610 N   0  0  0  0  0  0  0  0  0  0  0  0
   -9.9950    4.4790    7.6090 C   0  0  0  0  0  0  0  0  0  0  0  0
   -8.6630    5.2070    7.7200 C   0  0  0  0  0  0  0  0  0  0  0  0
  -10.7490    4.8610    6.3730 C   0  0  0  0  0  0  0  0  0  0  0  0
  -11.0350    6.2020    6.1170 C   0  0  0  0  0  0  0  0  0  0  0  0
  -11.7370    6.5580    4.9650 C   0  0  0  0  0  0  0  0  0  0  0  0
  -12.1550    5.5730    4.0710 C   0  0  0  0  0  0  0  0  0  0  0  0
  -11.8700    4.2310    4.3270 C   0  0  0  0  0  0  0  0  0  0  0  0
  -11.1660    3.8760    5.4790 C   0  0  0  0  0  0  0  0  0  0  0  0
  -12.0160    7.8660    4.7150 O   0  0  0  0  0  0  0  0  0  0  0  0
   -6.8990    7.6510    9.7710 O   0  0  0  0  0  0  0  0  0  0  0  0
   -6.8828    2.9936    5.6029 N   0  0  0  0  0  0  0  0  0  0  0  0
   -6.9625    2.0423    4.6742 N   0  0  0  0  0  0  0  0  0  0  0  0
   -7.9595    2.0283    3.7495 C   0  0  0  0  0  0  0  0  0  0  0  0
   -7.9823    0.9895    2.7568 N   0  0  0  0  0  0  0  0  0  0  0  0
   -7.6167    1.2759    1.3717 C   0  0  0  0  0  0  0  0  0  0  0  0
   -6.3809    0.4514    0.9840 C   0  0  0  0  0  0  0  0  0  0  0  0
   -6.5064   -0.9785    1.3543 N   0  0  0  0  0  0  0  0  0  0  0  0
   -7.0587   -1.9285    0.3456 C   0  0  0  0  0  0  0  0  0  0  0  0
   -6.0010   -2.3808   -0.6577 C   0  0  0  0  0  0  0  0  0  0  0  0
   -6.3525   -3.3320   -1.6365 C   0  0  0  0  0  0  0  0  0  0  0  0
   -5.4095   -3.7859   -2.5620 C   0  0  0  0  0  0  0  0  0  0  0  0
   -4.0986   -3.3103   -2.5158 C   0  0  0  0  0  0  0  0  0  0  0  0
   -3.7264   -2.3859   -1.5388 C   0  0  0  0  0  0  0  0  0  0  0  0
   -4.6652   -1.9266   -0.6105 C   0  0  0  0  0  0  0  0  0  0  0  0
   -8.3175   -1.4124   -0.3450 C   0  0  0  0  0  0  0  0  0  0  0  0
   -8.2494   -0.5957   -1.4937 C   0  0  0  0  0  0  0  0  0  0  0  0
   -9.4178   -0.1378   -2.1086 C   0  0  0  0  0  0  0  0  0  0  0  0
  -10.6656   -0.4986   -1.5981 C   0  0  0  0  0  0  0  0  0  0  0  0
  -10.7483   -1.3290   -0.4789 C   0  0  0  0  0  0  0  0  0  0  0  0
   -9.5832   -1.7912    0.1393 C   0  0  0  0  0  0  0  0  0  0  0  0
   -6.9086   -1.2058    2.7606 C   0  0  0  0  0  0  0  0  0  0  0  0
   -8.1567   -0.4069    3.1456 C   0  0  0  0  0  0  0  0  0  0  0  0
   -8.9328    3.0459    3.7687 C   0  0  0  0  0  0  0  0  0  0  0  0
   -9.9980    3.0650    2.8469 C   0  0  0  0  0  0  0  0  0  0  0  0
  -10.9280    4.1048    2.8637 C   0  0  0  0  0  0  0  0  0  0  0  0
  -10.8093    5.1359    3.7940 C   0  0  0  0  0  0  0  0  0  0  0  0
   -9.7724    5.1239    4.7281 C   0  0  0  0  0  0  0  0  0  0  0  0
   -8.8366    4.0678    4.7455 C   0  0  0  0  0  0  0  0  0  0  0  0
  1  3  4  0
  1 14  4  0
  1  2  1  0
  3  4  4  0
  4  5  4  0
  5  6  4  0
  5 22  1  0
  6  7  1  0
  6 14  4  0
  7  8  1  0
  8  9  4  0
  8 12  4  0
  9 10  4  0
 10 11  4  0
 11 12  4  0
 12 13  1  0
 13 14  1  0
 13 15  1  6
 15 16  4  0
 15 20  4  0
 16 17  4  0
 17 18  4  0
 17 21  1  0
 18 19  4  0
 19 20  4  0
 23 24  4  0
 24 25  4  0
 25 26  1  0
 26 27  1  0
 27 28  1  0
 28 29  1  0
 29 30  1  0
 30 31  1  0
 31 32  4  0
 32 33  4  0
 33 34  4  0
 34 35  4  0
 35 36  4  0
 30 37  1  0
 37 38  4  0
 38 39  4  0
 39 40  4  0
 40 41  4  0
 41 42  4  0
 29 43  1  0
 43 44  1  0
 25 45  4  0
 45 46  4  0
 46 47  4  0
 47 48  4  0
 48 49  4  0
 49 50  4  0
 44 26  1  0
 50 45  4  0
 36 31  4  0
 42 37  4  0
  2 23  4  0
  2 50  4  0
M  CHG  1  24   1
M  END
$$$$

     RDKit          3D

 40 45  0  0  0  0  0  0  0  0999 V2000
   -7.6410    4.9930    6.8080 C   0  0  0  0  0  0  0  0  0  1  0  0
   -7.7310    4.0530    5.7140 C   0  0  0  0  0  0  0  0  0  2  0  0
   -6.4520    5.6300    6.8680 N   0  0  0  0  0  0  0  0  0  0  0  0
   -6.2260    6.5240    7.8670 N   0  0  0  0  0  0  0  0  0  0  0  0
   -7.1930    6.7500    8.7820 C   0  0  0  0  0  0  0  0  0  0  0  0
   -8.4240    6.1170    8.7580 C   0  0  0  0  0  0  0  0  0  0  0  0
   -9.3950    6.3570    9.7450 N   0  0  0  0  0  0  0  0  0  0  0  0
  -10.5620    5.6840    9.7600 C   0  0  0  0  0  0  0  0  0  0  0  0
  -11.5770    5.6820   10.5960 N   0  0  0  0  0  0  0  0  0  0  0  0
  -12.4690    4.7490   10.1080 N   0  0  0  0  0  0  0  0  0  0  0  0
  -12.0160    4.1880    8.9920 N   0  0  0  0  0  0  0  0  0  0  0  0
  -10.8400    4.7900    8.7610 N   0  0  0  0  0  0  0  0  0  0  0  0
   -9.9950    4.4790    7.6090 C   0  0  0  0  0  0  0  0  0  0  0  0
   -8.6630    5.2070    7.7200 C   0  0  0  0  0  0  0  0  0  0  0  0
  -10.7490    4.8610    6.3730 C   0  0  0  0  0  0  0  0  0  0  0  0
  -11.0350    6.2020    6.1170 C   0  0  0  0  0  0  0  0  0  0  0  0
  -11.7370    6.5580    4.9650 C   0  0  0  0  0  0  0  0  0  0  0  0
  -12.1550    5.5730    4.0710 C   0  0  0  0  0  0  0  0  0  0  0  0
  -11.8700    4.2310    4.3270 C   0  0  0  0  0  0  0  0  0  0  0  0
  -11.1660    3.8760    5.4790 C   0  0  0  0  0  0  0  0  0  0  0  0
  -12.0160    7.8660    4.7150 O   0  0  0  0  0  0  0  0  0  0  0  0
   -6.8990    7.6510    9.7710 O   0  0  0  0  0  0  0  0  0  0  0  0
   -6.8797    3.0348    5.4450 N   0  0  0  0  0  0  0  0  0  0  0  0
   -7.3255    2.3439    4.4058 N   0  0  0  0  0  0  0  0  0  0  0  0
   -8.4832    2.9139    4.0244 C   0  0  0  0  0  0  0  0  0  0  0  0
   -9.4816    2.2985    2.6655 S   0  0  0  0  0  0  0  0  0  0  0  0
   -8.6293    3.3012    1.4027 C   0  0  0  0  0  0  0  0  0  0  0  0
   -8.8395    2.6940    0.0518 C   0  0  0  0  0  0  0  0  0  0  0  0
   -8.3301    1.5668   -0.1992 O   0  0  0  0  0  0  0  0  0  0  0  0
   -9.6384    3.3707   -0.9305 N   0  0  0  0  0  0  0  0  0  0  0  0
   -9.6521    3.0329   -2.3284 C   0  0  0  0  0  0  0  0  0  0  0  0
  -10.8173    3.2445   -3.0743 C   0  0  0  0  0  0  0  0  0  0  0  0
  -10.8533    2.9397   -4.4366 C   0  0  0  0  0  0  0  0  0  0  0  0
   -9.7181    2.4302   -5.0870 C   0  0  0  0  0  0  0  0  0  0  0  0
   -9.7886    2.1183   -6.5581 C   0  0  0  0  0  0  0  0  0  0  0  0
   -8.5202    2.2545   -4.3528 C   0  0  0  0  0  0  0  0  0  0  0  0
   -7.2728    1.7184   -5.0080 C   0  0  0  0  0  0  0  0  0  0  0  0
   -8.5012    2.5530   -2.9780 C   0  0  0  0  0  0  0  0  0  0  0  0
   -8.7945    3.9718    4.7978 N   0  0  0  0  0  0  0  0  0  0  0  0
   -9.9570    4.8497    4.6779 C   0  0  0  0  0  0  0  0  0  0  0  0
  1  3  4  0
  1 14  4  0
  1  2  1  0
  3  4  4  0
  4  5  4  0
  5  6  4  0
  5 22  1  0
  6  7  1  0
  6 14  4  0
  7  8  1  0
  8  9  4  0
  8 12  4  0
  9 10  4  0
 10 11  4  0
 11 12  4  0
 12 13  1  0
 13 14  1  0
 13 15  1  6
 15 16  4  0
 15 20  4  0
 16 17  4  0
 17 18  4  0
 17 21  1  0
 18 19  4  0
 19 20  4  0
 23 24  4  0
 24 25  4  0
 25 26  1  0
 26 27  1  0
 27 28  1  0
 28 29  2  0
 28 30  1  0
 30 31  1  0
 31 32  4  0
 32 33  4  0
 33 34  4  0
 34 35  1  0
 34 36  4  0
 36 37  1  0
 36 38  4  0
 25 39  4  0
 39 40  1  0
 38 31  4  0
  2 23  4  0
  2 39  4  0
M  END
$$$$

     RDKit          3D

 40 45  0  0  0  0  0  0  0  0999 V2000
   -7.6410    4.9930    6.8080 C   0  0  0  0  0  0  0  0  0  1  0  0
   -7.7310    4.0530    5.7140 C   0  0  0  0  0  0  0  0  0  2  0  0
   -6.4520    5.6300    6.8680 N   0  0  0  0  0  0  0  0  0  0  0  0
   -6.2260    6.5240    7.8670 N   0  0  0  0  0  0  0  0  0  0  0  0
   -7.1930    6.7500    8.7820 C   0  0  0  0  0  0  0  0  0  0  0  0
   -8.4240    6.1170    8.7580 C   0  0  0  0  0  0  0  0  0  0  0  0
   -9.3950    6.3570    9.7450 N   0  0  0  0  0  0  0  0  0  0  0  0
  -10.5620    5.6840    9.7600 C   0  0  0  0  0  0  0  0  0  0  0  0
  -11.5770    5.6820   10.5960 N   0  0  0  0  0  0  0  0  0  0  0  0
  -12.4690    4.7490   10.1080 N   0  0  0  0  0  0  0  0  0  0  0  0
  -12.0160    4.1880    8.9920 N   0  0  0  0  0  0  0  0  0  0  0  0
  -10.8400    4.7900    8.7610 N   0  0  0  0  0  0  0  0  0  0  0  0
   -9.9950    4.4790    7.6090 C   0  0  0  0  0  0  0  0  0  0  0  0
   -8.6630    5.2070    7.7200 C   0  0  0  0  0  0  0  0  0  0  0  0
  -10.7490    4.8610    6.3730 C   0  0  0  0  0  0  0  0  0  0  0  0
  -11.0350    6.2020    6.1170 C   0  0  0  0  0  0  0  0  0  0  0  0
  -11.7370    6.5580    4.9650 C   0  0  0  0  0  0  0  0  0  0  0  0
  -12.1550    5.5730    4.0710 C   0  0  0  0  0  0  0  0  0  0  0  0
  -11.8700    4.2310    4.3270 C   0  0  0  0  0  0  0  0  0  0  0  0
  -11.1660    3.8760    5.4790 C   0  0  0  0  0  0  0  0  0  0  0  0
  -12.0160    7.8660    4.7150 O   0  0  0  0  0  0  0  0  0  0  0  0
   -6.8990    7.6510    9.7710 O   0  0  0  0  0  0  0  0  0  0  0  0
   -6.8813    3.0328    5.4478 N   0  0  0  0  0  0  0  0  0  0  0  0
   -7.3184    2.3521    4.3983 N   0  0  0  0  0  0  0  0  0  0  0  0
   -8.4689    2.9310    4.0085 C   0  0  0  0  0  0  0  0  0  0  0  0
   -9.4431    2.3524    2.6183 S   0  0  0  0  0  0  0  0  0  0  0  0
   -8.5336    3.3647    1.4067 C   0  0  0  0  0  0  0  0  0  0  0  0
   -9.0344    3.0738    0.0276 C   0  0  0  0  0  0  0  0  0  0  0  0
   -9.6689    3.9641   -0.6001 O   0  0  0  0  0  0  0  0  0  0  0  0
   -8.8182    1.7781   -0.5558 N   0  0  0  0  0  0  0  0  0  0  0  0
   -9.0953    1.4516   -1.9279 C   0  0  0  0  0  0  0  0  0  0  0  0
   -9.5202    0.1580   -2.2492 C   0  0  0  0  0  0  0  0  0  0  0  0
   -9.7663   -0.1979   -3.5752 C   0  0  0  0  0  0  0  0  0  0  0  0
   -9.5765    0.7303   -4.6113 C   0  0  0  0  0  0  0  0  0  0  0  0
   -9.8549    0.3155   -6.0316 C   0  0  0  0  0  0  0  0  0  0  0  0
   -9.1439    2.0407   -4.2989 C   0  0  0  0  0  0  0  0  0  0  0  0
   -8.9023    3.0640   -5.3789 C   0  0  0  0  0  0  0  0  0  0  0  0
   -8.8861    2.3814   -2.9599 C   0  0  0  0  0  0  0  0  0  0  0  0
   -8.7840    3.9835    4.7874 N   0  0  0  0  0  0  0  0  0  0  0  0
   -9.9384    4.8712    4.6588 C   0  0  0  0  0  0  0  0  0  0  0  0
  1  3  4  0
  1 14  4  0
  1  2  1  0
  3  4  4  0
  4  5  4  0
  5  6  4  0
  5 22  1  0
  6  7  1  0
  6 14  4  0
  7  8  1  0
  8  9  4  0
  8 12  4  0
  9 10  4  0
 10 11  4  0
 11 12  4  0
 12 13  1  0
 13 14  1  0
 13 15  1  6
 15 16  4  0
 15 20  4  0
 16 17  4  0
 17 18  4  0
 17 21  1  0
 18 19  4  0
 19 20  4  0
 23 24  4  0
 24 25  4  0
 25 26  1  0
 26 27  1  0
 27 28  1  0
 28 29  2  0
 28 30  1  0
 30 31  1  0
 31 32  4  0
 32 33  4  0
 33 34  4  0
 34 35  1  0
 34 36  4  0
 36 37  1  0
 36 38  4  0
 25 39  4  0
 39 40  1  0
 38 31  4  0
  2 23  4  0
  2 39  4  0
M  END
$$$$

     RDKit          3D

 40 45  0  0  0  0  0  0  0  0999 V2000
   -7.6410    4.9930    6.8080 C   0  0  0  0  0  0  0  0  0  1  0  0
   -7.7310    4.0530    5.7140 C   0  0  0  0  0  0  0  0  0  2  0  0
   -6.4520    5.6300    6.8680 N   0  0  0  0  0  0  0  0  0  0  0  0
   -6.2260    6.5240    7.8670 N   0  0  0  0  0  0  0  0  0  0  0  0
   -7.1930    6.7500    8.7820 C   0  0  0  0  0  0  0  0  0  0  0  0
   -8.4240    6.1170    8.7580 C   0  0  0  0  0  0  0  0  0  0  0  0
   -9.3950    6.3570    9.7450 N   0  0  0  0  0  0  0  0  0  0  0  0
  -10.5620    5.6840    9.7600 C   0  0  0  0  0  0  0  0  0  0  0  0
  -11.5770    5.6820   10.5960 N   0  0  0  0  0  0  0  0  0  0  0  0
  -12.4690    4.7490   10.1080 N   0  0  0  0  0  0  0  0  0  0  0  0
  -12.0160    4.1880    8.9920 N   0  0  0  0  0  0  0  0  0  0  0  0
  -10.8400    4.7900    8.7610 N   0  0  0  0  0  0  0  0  0  0  0  0
   -9.9950    4.4790    7.6090 C   0  0  0  0  0  0  0  0  0  0  0  0
   -8.6630    5.2070    7.7200 C   0  0  0  0  0  0  0  0  0  0  0  0
  -10.7490    4.8610    6.3730 C   0  0  0  0  0  0  0  0  0  0  0  0
  -11.0350    6.2020    6.1170 C   0  0  0  0  0  0  0  0  0  0  0  0
  -11.7370    6.5580    4.9650 C   0  0  0  0  0  0  0  0  0  0  0  0
  -12.1550    5.5730    4.0710 C   0  0  0  0  0  0  0  0  0  0  0  0
  -11.8700    4.2310    4.3270 C   0  0  0  0  0  0  0  0  0  0  0  0
  -11.1660    3.8760    5.4790 C   0  0  0  0  0  0  0  0  0  0  0  0
  -12.0160    7.8660    4.7150 O   0  0  0  0  0  0  0  0  0  0  0  0
   -6.8990    7.6510    9.7710 O   0  0  0  0  0  0  0  0  0  0  0  0
   -6.8897    3.0222    5.4602 N   0  0  0  0  0  0  0  0  0  0  0  0
   -7.3234    2.3475    4.4053 N   0  0  0  0  0  0  0  0  0  0  0  0
   -8.4610    2.9433    4.0006 C   0  0  0  0  0  0  0  0  0  0  0  0
   -9.4273    2.3793    2.5964 S   0  0  0  0  0  0  0  0  0  0  0  0
   -8.5397    3.4140    1.3813 C   0  0  0  0  0  0  0  0  0  0  0  0
   -7.1582    2.8864    1.1416 C   0  0  0  0  0  0  0  0  0  0  0  0
   -6.1652    3.5857    1.4791 O   0  0  0  0  0  0  0  0  0  0  0  0
   -6.9768    1.5831    0.5637 N   0  0  0  0  0  0  0  0  0  0  0  0
   -5.6977    1.0229    0.2208 C   0  0  0  0  0  0  0  0  0  0  0  0
   -4.6751    1.8129   -0.3249 C   0  0  0  0  0  0  0  0  0  0  0  0
   -3.4484    1.2420   -0.6675 C   0  0  0  0  0  0  0  0  0  0  0  0
   -3.2232   -0.1323   -0.4881 C   0  0  0  0  0  0  0  0  0  0  0  0
   -1.8852   -0.7155   -0.8595 C   0  0  0  0  0  0  0  0  0  0  0  0
   -4.2539   -0.9394    0.0475 C   0  0  0  0  0  0  0  0  0  0  0  0
   -4.0652   -2.4213    0.2426 C   0  0  0  0  0  0  0  0  0  0  0  0
   -5.4872   -0.3531    0.3807 C   0  0  0  0  0  0  0  0  0  0  0  0
   -8.7701    4.0001    4.7753 N   0  0  0  0  0  0  0  0  0  0  0  0
   -9.9219    4.8913    4.6515 C   0  0  0  0  0  0  0  0  0  0  0  0
  1  3  4  0
  1 14  4  0
  1  2  1  0
  3  4  4  0
  4  5  4  0
  5  6  4  0
  5 22  1  0
  6  7  1  0
  6 14  4  0
  7  8  1  0
  8  9  4  0
  8 12  4  0
  9 10  4  0
 10 11  4  0
 11 12  4  0
 12 13  1  0
 13 14  1  0
 13 15  1  6
 15 16  4  0
 15 20  4  0
 16 17  4  0
 17 18  4  0
 17 21  1  0
 18 19  4  0
 19 20  4  0
 23 24  4  0
 24 25  4  0
 25 26  1  0
 26 27  1  0
 27 28  1  0
 28 29  2  0
 28 30  1  0
 30 31  1  0
 31 32  4  0
 32 33  4  0
 33 34  4  0
 34 35  1  0
 34 36  4  0
 36 37  1  0
 36 38  4  0
 25 39  4  0
 39 40  1  0
 38 31  4  0
  2 23  4  0
  2 39  4  0
M  END
$$$$

     RDKit          3D

 38 44  0  0  0  0  0  0  0  0999 V2000
   -7.6410    4.9930    6.8080 C   0  0  0  0  0  0  0  0  0  1  0  0
   -7.7310    4.0530    5.7140 C   0  0  0  0  0  0  0  0  0  2  0  0
   -6.4520    5.6300    6.8680 N   0  0  0  0  0  0  0  0  0  0  0  0
   -6.2260    6.5240    7.8670 N   0  0  0  0  0  0  0  0  0  0  0  0
   -7.1930    6.7500    8.7820 C   0  0  0  0  0  0  0  0  0  0  0  0
   -8.4240    6.1170    8.7580 C   0  0  0  0  0  0  0  0  0  0  0  0
   -9.3950    6.3570    9.7450 N   0  0  0  0  0  0  0  0  0  0  0  0
  -10.5620    5.6840    9.7600 C   0  0  0  0  0  0  0  0  0  0  0  0
  -11.5770    5.6820   10.5960 N   0  0  0  0  0  0  0  0  0  0  0  0
  -12.4690    4.7490   10.1080 N   0  0  0  0  0  0  0  0  0  0  0  0
  -12.0160    4.1880    8.9920 N   0  0  0  0  0  0  0  0  0  0  0  0
  -10.8400    4.7900    8.7610 N   0  0  0  0  0  0  0  0  0  0  0  0
   -9.9950    4.4790    7.6090 C   0  0  0  0  0  0  0  0  0  0  0  0
   -8.6630    5.2070    7.7200 C   0  0  0  0  0  0  0  0  0  0  0  0
  -10.7490    4.8610    6.3730 C   0  0  0  0  0  0  0  0  0  0  0  0
  -11.0350    6.2020    6.1170 C   0  0  0  0  0  0  0  0  0  0  0  0
  -11.7370    6.5580    4.9650 C   0  0  0  0  0  0  0  0  0  0  0  0
  -12.1550    5.5730    4.0710 C   0  0  0  0  0  0  0  0  0  0  0  0
  -11.8700    4.2310    4.3270 C   0  0  0  0  0  0  0  0  0  0  0  0
  -11.1660    3.8760    5.4790 C   0  0  0  0  0  0  0  0  0  0  0  0
  -12.0160    7.8660    4.7150 O   0  0  0  0  0  0  0  0  0  0  0  0
   -6.8990    7.6510    9.7710 O   0  0  0  0  0  0  0  0  0  0  0  0
   -6.8710    3.0235    5.3624 C   0  0  0  0  0  0  0  0  0  0  0  0
   -7.3831    2.2790    4.3628 N   0  0  0  0  0  0  0  0  0  0  0  0
   -6.7607    1.1178    3.7910 C   0  0  0  0  0  0  0  0  0  0  0  0
   -7.4497   -0.1048    3.7309 C   0  0  0  0  0  0  0  0  0  0  0  0
   -6.8285   -1.2384    3.1985 C   0  0  0  0  0  0  0  0  0  0  0  0
   -5.5111   -1.1632    2.7345 C   0  0  0  0  0  0  0  0  0  0  0  0
   -4.6632   -2.7131    2.0091 Br  0  0  0  0  0  0  0  0  0  0  0  0
   -4.8130    0.0464    2.8096 C   0  0  0  0  0  0  0  0  0  0  0  0
   -5.4323    1.1813    3.3417 C   0  0  0  0  0  0  0  0  0  0  0  0
   -8.5877    2.8290    4.0722 C   0  0  0  0  0  0  0  0  0  0  0  0
   -8.8589    3.8860    4.8700 N   0  0  0  0  0  0  0  0  0  0  0  0
  -10.0334    4.7574    4.7695 C   0  0  0  0  0  0  0  0  0  0  0  0
  -11.3162    3.9674    5.0583 C   0  0  0  0  0  0  0  0  0  0  0  0
  -11.7862    3.1322    3.8558 C   0  0  0  0  0  0  0  0  0  0  0  0
  -10.8657    1.9455    3.5222 C   0  0  0  0  0  0  0  0  0  0  0  0
   -9.5042    2.3807    2.9637 C   0  0  0  0  0  0  0  0  0  0  0  0
  1  3  4  0
  1 14  4  0
  1  2  1  0
  3  4  4  0
  4  5  4  0
  5  6  4  0
  5 22  1  0
  6  7  1  0
  6 14  4  0
  7  8  1  0
  8  9  4  0
  8 12  4  0
  9 10  4  0
 10 11  4  0
 11 12  4  0
 12 13  1  0
 13 14  1  0
 13 15  1  6
 15 16  4  0
 15 20  4  0
 16 17  4  0
 17 18  4  0
 17 21  1  0
 18 19  4  0
 19 20  4  0
 23 24  4  0
 24 25  1  0
 25 26  4  0
 26 27  4  0
 27 28  4  0
 28 29  1  0
 28 30  4  0
 30 31  4  0
 24 32  4  0
 32 33  4  0
 33 34  1  0
 34 35  1  0
 35 36  1  0
 36 37  1  0
 37 38  1  0
 31 25  4  0
 38 32  1  0
  2 23  4  0
  2 33  4  0
M  CHG  1  24   1
M  END
$$$$

     RDKit          3D

 41 47  0  0  0  0  0  0  0  0999 V2000
   -7.6410    4.9930    6.8080 C   0  0  0  0  0  0  0  0  0  1  0  0
   -7.7310    4.0530    5.7140 C   0  0  0  0  0  0  0  0  0  2  0  0
   -6.4520    5.6300    6.8680 N   0  0  0  0  0  0  0  0  0  0  0  0
   -6.2260    6.5240    7.8670 N   0  0  0  0  0  0  0  0  0  0  0  0
   -7.1930    6.7500    8.7820 C   0  0  0  0  0  0  0  0  0  0  0  0
   -8.4240    6.1170    8.7580 C   0  0  0  0  0  0  0  0  0  0  0  0
   -9.3950    6.3570    9.7450 N   0  0  0  0  0  0  0  0  0  0  0  0
  -10.5620    5.6840    9.7600 C   0  0  0  0  0  0  0  0  0  0  0  0
  -11.5770    5.6820   10.5960 N   0  0  0  0  0  0  0  0  0  0  0  0
  -12.4690    4.7490   10.1080 N   0  0  0  0  0  0  0  0  0  0  0  0
  -12.0160    4.1880    8.9920 N   0  0  0  0  0  0  0  0  0  0  0  0
  -10.8400    4.7900    8.7610 N   0  0  0  0  0  0  0  0  0  0  0  0
   -9.9950    4.4790    7.6090 C   0  0  0  0  0  0  0  0  0  0  0  0
   -8.6630    5.2070    7.7200 C   0  0  0  0  0  0  0  0  0  0  0  0
  -10.7490    4.8610    6.3730 C   0  0  0  0  0  0  0  0  0  0  0  0
  -11.0350    6.2020    6.1170 C   0  0  0  0  0  0  0  0  0  0  0  0
  -11.7370    6.5580    4.9650 C   0  0  0  0  0  0  0  0  0  0  0  0
  -12.1550    5.5730    4.0710 C   0  0  0  0  0  0  0  0  0  0  0  0
  -11.8700    4.2310    4.3270 C   0  0  0  0  0  0  0  0  0  0  0  0
  -11.1660    3.8760    5.4790 C   0  0  0  0  0  0  0  0  0  0  0  0
  -12.0160    7.8660    4.7150 O   0  0  0  0  0  0  0  0  0  0  0  0
   -6.8990    7.6510    9.7710 O   0  0  0  0  0  0  0  0  0  0  0  0
   -6.8002    3.1334    5.3402 N   0  0  0  0  0  0  0  0  0  0  0  0
   -7.3515    2.4944    4.2953 C   0  0  0  0  0  0  0  0  0  0  0  0
   -6.7139    1.3763    3.2237 S   0  0  0  0  0  0  0  0  0  0  0  0
   -8.1306    1.4208    2.2671 C   0  0  0  0  0  0  0  0  0  0  0  0
   -9.0438    2.3270    2.8293 C   0  0  0  0  0  0  0  0  0  1  0  0
  -10.3837    2.5710    2.2696 C   0  0  0  0  0  0  0  0  0  2  0  0
  -11.5171    2.1988    3.0077 C   0  0  0  0  0  0  0  0  0  0  0  0
  -12.7955    2.3965    2.4832 C   0  0  0  0  0  0  0  0  0  0  0  0
  -12.9511    2.9533    1.2132 C   0  0  0  0  0  0  0  0  0  0  0  0
  -11.8290    3.3118    0.4616 C   0  0  0  0  0  0  0  0  0  0  0  0
  -10.5327    3.1207    0.9811 C   0  0  0  0  0  0  0  0  0  0  0  0
   -9.3825    3.4758    0.2571 O   0  0  0  0  0  0  0  0  0  0  0  0
   -9.3944    4.0600   -1.0410 C   0  0  0  0  0  0  0  0  0  0  0  0
   -8.5631    2.9007    3.9632 N   0  0  0  0  0  0  0  0  0  0  0  0
   -8.8869    3.8803    4.8268 C   0  0  0  0  0  0  0  0  0  0  0  0
  -10.0147    4.8627    4.6498 C   0  0  0  0  0  0  0  0  0  0  0  0
   -9.7085    5.8111    3.5343 C   0  0  0  0  0  0  0  0  0  0  0  0
  -10.4847    5.9031    2.5475 O   0  0  0  0  0  0  0  0  0  0  0  0
   -8.5755    6.6133    3.5940 O   0  0  0  0  0  0  0  0  0  0  0  0
  1  3  4  0
  1 14  4  0
  1  2  1  0
  3  4  4  0
  4  5  4  0
  5  6  4  0
  5 22  1  0
  6  7  1  0
  6 14  4  0
  7  8  1  0
  8  9  4  0
  8 12  4  0
  9 10  4  0
 10 11  4  0
 11 12  4  0
 12 13  1  0
 13 14  1  0
 13 15  1  6
 15 16  4  0
 15 20  4  0
 16 17  4  0
 17 18  4  0
 17 21  1  0
 18 19  4  0
 19 20  4  0
 23 24  4  0
 24 25  4  0
 25 26  4  0
 26 27  4  0
 27 28  1  0
 28 29  4  0
 29 30  4  0
 30 31  4  0
 31 32  4  0
 32 33  4  0
 33 34  1  0
 34 35  1  0
 27 36  4  0
 36 37  4  0
 37 38  1  0
 38 39  1  0
 39 40  2  0
 39 41  1  0
 36 24  4  0
 33 28  4  0
  2 23  4  0
  2 37  4  0
M  CHG  1  41  -1
M  END
$$$$

     RDKit          3D

 41 47  0  0  0  0  0  0  0  0999 V2000
   -7.6410    4.9930    6.8080 C   0  0  0  0  0  0  0  0  0  1  0  0
   -7.7310    4.0530    5.7140 C   0  0  0  0  0  0  0  0  0  2  0  0
   -6.4520    5.6300    6.8680 N   0  0  0  0  0  0  0  0  0  0  0  0
   -6.2260    6.5240    7.8670 N   0  0  0  0  0  0  0  0  0  0  0  0
   -7.1930    6.7500    8.7820 C   0  0  0  0  0  0  0  0  0  0  0  0
   -8.4240    6.1170    8.7580 C   0  0  0  0  0  0  0  0  0  0  0  0
   -9.3950    6.3570    9.7450 N   0  0  0  0  0  0  0  0  0  0  0  0
  -10.5620    5.6840    9.7600 C   0  0  0  0  0  0  0  0  0  0  0  0
  -11.5770    5.6820   10.5960 N   0  0  0  0  0  0  0  0  0  0  0  0
  -12.4690    4.7490   10.1080 N   0  0  0  0  0  0  0  0  0  0  0  0
  -12.0160    4.1880    8.9920 N   0  0  0  0  0  0  0  0  0  0  0  0
  -10.8400    4.7900    8.7610 N   0  0  0  0  0  0  0  0  0  0  0  0
   -9.9950    4.4790    7.6090 C   0  0  0  0  0  0  0  0  0  0  0  0
   -8.6630    5.2070    7.7200 C   0  0  0  0  0  0  0  0  0  0  0  0
  -10.7490    4.8610    6.3730 C   0  0  0  0  0  0  0  0  0  0  0  0
  -11.0350    6.2020    6.1170 C   0  0  0  0  0  0  0  0  0  0  0  0
  -11.7370    6.5580    4.9650 C   0  0  0  0  0  0  0  0  0  0  0  0
  -12.1550    5.5730    4.0710 C   0  0  0  0  0  0  0  0  0  0  0  0
  -11.8700    4.2310    4.3270 C   0  0  0  0  0  0  0  0  0  0  0  0
  -11.1660    3.8760    5.4790 C   0  0  0  0  0  0  0  0  0  0  0  0
  -12.0160    7.8660    4.7150 O   0  0  0  0  0  0  0  0  0  0  0  0
   -6.8990    7.6510    9.7710 O   0  0  0  0  0  0  0  0  0  0  0  0
   -6.7986    3.1372    5.3360 N   0  0  0  0  0  0  0  0  0  0  0  0
   -7.3530    2.4941    4.2954 C   0  0  0  0  0  0  0  0  0  0  0  0
   -6.7157    1.3779    3.2218 S   0  0  0  0  0  0  0  0  0  0  0  0
   -8.1385    1.4121    2.2743 C   0  0  0  0  0  0  0  0  0  0  0  0
   -9.0550    2.3110    2.8423 C   0  0  0  0  0  0  0  0  0  1  0  0
  -10.4046    2.5341    2.2963 C   0  0  0  0  0  0  0  0  0  2  0  0
  -10.5464    3.0273    0.9904 C   0  0  0  0  0  0  0  0  0  0  0  0
  -11.8169    3.2309    0.4487 C   0  0  0  0  0  0  0  0  0  0  0  0
  -12.9534    2.9291    1.1999 C   0  0  0  0  0  0  0  0  0  0  0  0
  -12.8242    2.4131    2.4919 C   0  0  0  0  0  0  0  0  0  0  0  0
  -11.5475    2.1998    3.0491 C   0  0  0  0  0  0  0  0  0  0  0  0
  -11.3787    1.6600    4.3353 O   0  0  0  0  0  0  0  0  0  0  0  0
  -12.4451    1.3247    5.2162 C   0  0  0  0  0  0  0  0  0  0  0  0
   -8.5690    2.8933    3.9702 N   0  0  0  0  0  0  0  0  0  0  0  0
   -8.8911    3.8748    4.8330 C   0  0  0  0  0  0  0  0  0  0  0  0
  -10.0171    4.8600    4.6558 C   0  0  0  0  0  0  0  0  0  0  0  0
   -9.7222    5.7882    3.5209 C   0  0  0  0  0  0  0  0  0  0  0  0
  -10.5070    5.8605    2.5392 O   0  0  0  0  0  0  0  0  0  0  0  0
   -8.5898    6.5926    3.5560 O   0  0  0  0  0  0  0  0  0  0  0  0
  1  3  4  0
  1 14  4  0
  1  2  1  0
  3  4  4  0
  4  5  4  0
  5  6  4  0
  5 22  1  0
  6  7  1  0
  6 14  4  0
  7  8  1  0
  8  9  4  0
  8 12  4  0
  9 10  4  0
 10 11  4  0
 11 12  4  0
 12 13  1  0
 13 14  1  0
 13 15  1  6
 15 16  4  0
 15 20  4  0
 16 17  4  0
 17 18  4  0
 17 21  1  0
 18 19  4  0
 19 20  4  0
 23 24  4  0
 24 25  4  0
 25 26  4  0
 26 27  4  0
 27 28  1  0
 28 29  4  0
 29 30  4  0
 30 31  4  0
 31 32  4  0
 32 33  4  0
 33 34  1  0
 34 35  1  0
 27 36  4  0
 36 37  4  0
 37 38  1  0
 38 39  1  0
 39 40  2  0
 39 41  1  0
 36 24  4  0
 33 28  4  0
  2 23  4  0
  2 37  4  0
M  CHG  1  41  -1
M  END
$$$$

     RDKit          3D

 29 34  0  0  0  0  0  0  0  0999 V2000
   -7.6410    4.9930    6.8080 C   0  0  0  0  0  0  0  0  0  1  0  0
   -7.7310    4.0530    5.7140 C   0  0  0  0  0  0  0  0  0  2  0  0
   -6.4520    5.6300    6.8680 N   0  0  0  0  0  0  0  0  0  0  0  0
   -6.2260    6.5240    7.8670 N   0  0  0  0  0  0  0  0  0  0  0  0
   -7.1930    6.7500    8.7820 C   0  0  0  0  0  0  0  0  0  0  0  0
   -8.4240    6.1170    8.7580 C   0  0  0  0  0  0  0  0  0  0  0  0
   -9.3950    6.3570    9.7450 N   0  0  0  0  0  0  0  0  0  0  0  0
  -10.5620    5.6840    9.7600 C   0  0  0  0  0  0  0  0  0  0  0  0
  -11.5770    5.6820   10.5960 N   0  0  0  0  0  0  0  0  0  0  0  0
  -12.4690    4.7490   10.1080 N   0  0  0  0  0  0  0  0  0  0  0  0
  -12.0160    4.1880    8.9920 N   0  0  0  0  0  0  0  0  0  0  0  0
  -10.8400    4.7900    8.7610 N   0  0  0  0  0  0  0  0  0  0  0  0
   -9.9950    4.4790    7.6090 C   0  0  0  0  0  0  0  0  0  0  0  0
   -8.6630    5.2070    7.7200 C   0  0  0  0  0  0  0  0  0  0  0  0
  -10.7490    4.8610    6.3730 C   0  0  0  0  0  0  0  0  0  0  0  0
  -11.0350    6.2020    6.1170 C   0  0  0  0  0  0  0  0  0  0  0  0
  -11.7370    6.5580    4.9650 C   0  0  0  0  0  0  0  0  0  0  0  0
  -12.1550    5.5730    4.0710 C   0  0  0  0  0  0  0  0  0  0  0  0
  -11.8700    4.2310    4.3270 C   0  0  0  0  0  0  0  0  0  0  0  0
  -11.1660    3.8760    5.4790 C   0  0  0  0  0  0  0  0  0  0  0  0
  -12.0160    7.8660    4.7150 O   0  0  0  0  0  0  0  0  0  0  0  0
   -6.8990    7.6510    9.7710 O   0  0  0  0  0  0  0  0  0  0  0  0
   -6.7766    3.2418    5.2197 N   0  0  0  0  0  0  0  0  0  0  0  0
   -7.3105    2.5152    4.2473 N   0  0  0  0  0  0  0  0  0  0  0  0
   -8.5918    2.8187    4.1058 N   0  0  0  0  0  0  0  0  0  0  0  0
   -8.9074    3.7545    4.9833 N   0  0  0  0  0  0  0  0  0  0  0  0
  -10.2367    4.3512    5.1055 C   0  0  0  0  0  0  0  0  0  0  0  0
  -10.2741    5.8511    4.8564 C   0  0  0  0  0  0  0  0  0  0  0  0
  -10.7810    4.8928    3.7923 C   0  0  0  0  0  0  0  0  0  0  0  0
  1  3  4  0
  1 14  4  0
  1  2  1  0
  3  4  4  0
  4  5  4  0
  5  6  4  0
  5 22  1  0
  6  7  1  0
  6 14  4  0
  7  8  1  0
  8  9  4  0
  8 12  4  0
  9 10  4  0
 10 11  4  0
 11 12  4  0
 12 13  1  0
 13 14  1  0
 13 15  1  6
 15 16  4  0
 15 20  4  0
 16 17  4  0
 17 18  4  0
 17 21  1  0
 18 19  4  0
 19 20  4  0
 23 24  4  0
 24 25  4  0
 25 26  4  0
 26 27  1  0
 27 28  1  0
 28 29  1  0
 29 27  1  0
  2 23  4  0
  2 26  4  0
M  END
$$$$

     RDKit          3D

 29 34  0  0  0  0  0  0  0  0999 V2000
   -7.6410    4.9930    6.8080 C   0  0  0  0  0  0  0  0  0  1  0  0
   -7.7310    4.0530    5.7140 C   0  0  0  0  0  0  0  0  0  2  0  0
   -6.4520    5.6300    6.8680 N   0  0  0  0  0  0  0  0  0  0  0  0
   -6.2260    6.5240    7.8670 N   0  0  0  0  0  0  0  0  0  0  0  0
   -7.1930    6.7500    8.7820 C   0  0  0  0  0  0  0  0  0  0  0  0
   -8.4240    6.1170    8.7580 C   0  0  0  0  0  0  0  0  0  0  0  0
   -9.3950    6.3570    9.7450 N   0  0  0  0  0  0  0  0  0  0  0  0
  -10.5620    5.6840    9.7600 C   0  0  0  0  0  0  0  0  0  0  0  0
  -11.5770    5.6820   10.5960 N   0  0  0  0  0  0  0  0  0  0  0  0
  -12.4690    4.7490   10.1080 N   0  0  0  0  0  0  0  0  0  0  0  0
  -12.0160    4.1880    8.9920 N   0  0  0  0  0  0  0  0  0  0  0  0
  -10.8400    4.7900    8.7610 N   0  0  0  0  0  0  0  0  0  0  0  0
   -9.9950    4.4790    7.6090 C   0  0  0  0  0  0  0  0  0  0  0  0
   -8.6630    5.2070    7.7200 C   0  0  0  0  0  0  0  0  0  0  0  0
  -10.7490    4.8610    6.3730 C   0  0  0  0  0  0  0  0  0  0  0  0
  -11.0350    6.2020    6.1170 C   0  0  0  0  0  0  0  0  0  0  0  0
  -11.7370    6.5580    4.9650 C   0  0  0  0  0  0  0  0  0  0  0  0
  -12.1550    5.5730    4.0710 C   0  0  0  0  0  0  0  0  0  0  0  0
  -11.8700    4.2310    4.3270 C   0  0  0  0  0  0  0  0  0  0  0  0
  -11.1660    3.8760    5.4790 C   0  0  0  0  0  0  0  0  0  0  0  0
  -12.0160    7.8660    4.7150 O   0  0  0  0  0  0  0  0  0  0  0  0
   -6.8990    7.6510    9.7710 O   0  0  0  0  0  0  0  0  0  0  0  0
   -7.0194    2.9094    5.5513 N   0  0  0  0  0  0  0  0  0  0  0  0
   -7.5209    2.2774    4.4976 N   0  0  0  0  0  0  0  0  0  0  0  0
   -8.5446    2.9589    4.0020 N   0  0  0  0  0  0  0  0  0  0  0  0
   -8.7123    4.0508    4.7262 N   0  0  0  0  0  0  0  0  0  0  0  0
   -9.7734    5.0348    4.5222 C   0  0  0  0  0  0  0  0  0  0  0  0
   -9.2696    6.4378    4.2174 C   0  0  0  0  0  0  0  0  0  0  0  0
   -9.8356    5.5734    3.1027 C   0  0  0  0  0  0  0  0  0  0  0  0
  1  3  4  0
  1 14  4  0
  1  2  1  0
  3  4  4  0
  4  5  4  0
  5  6  4  0
  5 22  1  0
  6  7  1  0
  6 14  4  0
  7  8  1  0
  8  9  4  0
  8 12  4  0
  9 10  4  0
 10 11  4  0
 11 12  4  0
 12 13  1  0
 13 14  1  0
 13 15  1  6
 15 16  4  0
 15 20  4  0
 16 17  4  0
 17 18  4  0
 17 21  1  0
 18 19  4  0
 19 20  4  0
 23 24  4  0
 24 25  4  0
 25 26  4  0
 26 27  1  0
 27 28  1  0
 28 29  1  0
 29 27  1  0
  2 23  4  0
  2 26  4  0
M  END
$$$$

     RDKit          3D

 43 49  0  0  0  0  0  0  0  0999 V2000
   -7.6410    4.9930    6.8080 C   0  0  0  0  0  0  0  0  0  1  0  0
   -7.7310    4.0530    5.7140 C   0  0  0  0  0  0  0  0  0  2  0  0
   -6.4520    5.6300    6.8680 N   0  0  0  0  0  0  0  0  0  0  0  0
   -6.2260    6.5240    7.8670 N   0  0  0  0  0  0  0  0  0  0  0  0
   -7.1930    6.7500    8.7820 C   0  0  0  0  0  0  0  0  0  0  0  0
   -8.4240    6.1170    8.7580 C   0  0  0  0  0  0  0  0  0  0  0  0
   -9.3950    6.3570    9.7450 N   0  0  0  0  0  0  0  0  0  0  0  0
  -10.5620    5.6840    9.7600 C   0  0  0  0  0  0  0  0  0  0  0  0
  -11.5770    5.6820   10.5960 N   0  0  0  0  0  0  0  0  0  0  0  0
  -12.4690    4.7490   10.1080 N   0  0  0  0  0  0  0  0  0  0  0  0
  -12.0160    4.1880    8.9920 N   0  0  0  0  0  0  0  0  0  0  0  0
  -10.8400    4.7900    8.7610 N   0  0  0  0  0  0  0  0  0  0  0  0
   -9.9950    4.4790    7.6090 C   0  0  0  0  0  0  0  0  0  0  0  0
   -8.6630    5.2070    7.7200 C   0  0  0  0  0  0  0  0  0  0  0  0
  -10.7490    4.8610    6.3730 C   0  0  0  0  0  0  0  0  0  0  0  0
  -11.0350    6.2020    6.1170 C   0  0  0  0  0  0  0  0  0  0  0  0
  -11.7370    6.5580    4.9650 C   0  0  0  0  0  0  0  0  0  0  0  0
  -12.1550    5.5730    4.0710 C   0  0  0  0  0  0  0  0  0  0  0  0
  -11.8700    4.2310    4.3270 C   0  0  0  0  0  0  0  0  0  0  0  0
  -11.1660    3.8760    5.4790 C   0  0  0  0  0  0  0  0  0  0  0  0
  -12.0160    7.8660    4.7150 O   0  0  0  0  0  0  0  0  0  0  0  0
   -6.8990    7.6510    9.7710 O   0  0  0  0  0  0  0  0  0  0  0  0
   -6.7614    3.0801    5.3794 C   0  0  0  0  0  0  0  0  0  0  0  0
   -6.9125    2.1356    4.3326 C   0  0  0  0  0  0  0  0  0  0  0  0
   -5.9118    1.2044    4.0183 O   0  0  0  0  0  0  0  0  0  0  0  0
   -4.5367    1.4049    4.1946 C   0  0  0  0  0  0  0  0  0  0  0  0
   -4.0622    2.5635    4.3462 O   0  0  0  0  0  0  0  0  0  0  0  0
   -3.6118    0.2408    4.0839 C   0  0  0  0  0  0  0  0  0  0  0  0
   -3.2527    0.0568    2.7179 O   0  0  0  0  0  0  0  0  0  0  0  0
   -2.3986   -0.9536    2.2519 C   0  0  0  0  0  0  0  0  0  0  0  0
   -2.1331   -1.0192    0.8791 C   0  0  0  0  0  0  0  0  0  0  0  0
   -1.2879   -2.0069    0.3650 C   0  0  0  0  0  0  0  0  0  0  0  0
   -0.6841   -2.9375    1.2234 C   0  0  0  0  0  0  0  0  0  0  0  0
    0.1912   -4.0217    0.6681 C   0  0  0  0  0  0  0  0  0  0  0  0
   -0.9609   -2.8866    2.5975 C   0  0  0  0  0  0  0  0  0  0  0  0
   -1.8063   -1.8987    3.1117 C   0  0  0  0  0  0  0  0  0  0  0  0
   -8.1119    2.0922    3.6049 C   0  0  0  0  0  0  0  0  0  0  0  0
   -9.1110    3.0077    3.9137 C   0  0  0  0  0  0  0  0  0  0  0  0
  -10.6136    3.1983    3.1846 S   0  0  0  0  0  0  0  0  0  0  0  0
  -10.9813    4.4885    4.2140 C   0  0  0  0  0  0  0  0  0  0  0  0
  -12.0611    5.1331    4.1808 O   0  0  0  0  0  0  0  0  0  0  0  0
  -10.0082    4.7551    5.0652 O   0  0  0  0  0  0  0  0  0  0  0  0
   -8.9663    3.9481    4.9216 C   0  0  0  0  0  0  0  0  0  0  0  0
  1  3  4  0
  1 14  4  0
  1  2  1  0
  3  4  4  0
  4  5  4  0
  5  6  4  0
  5 22  1  0
  6  7  1  0
  6 14  4  0
  7  8  1  0
  8  9  4  0
  8 12  4  0
  9 10  4  0
 10 11  4  0
 11 12  4  0
 12 13  1  0
 13 14  1  0
 13 15  1  6
 15 16  4  0
 15 20  4  0
 16 17  4  0
 17 18  4  0
 17 21  1  0
 18 19  4  0
 19 20  4  0
 23 24  4  0
 24 25  1  0
 25 26  1  0
 26 27  2  0
 26 28  1  0
 28 29  1  0
 29 30  1  0
 30 31  4  0
 31 32  4  0
 32 33  4  0
 33 34  1  0
 33 35  4  0
 35 36  4  0
 24 37  4  0
 37 38  4  0
 38 39  4  0
 39 40  4  0
 40 41  2  0
 40 42  4  0
 42 43  4  0
 36 30  4  0
 43 38  4  0
  2 23  4  0
  2 43  4  0
M  END
$$$$

     RDKit          3D

 43 49  0  0  0  0  0  0  0  0999 V2000
   -7.6410    4.9930    6.8080 C   0  0  0  0  0  0  0  0  0  1  0  0
   -7.7310    4.0530    5.7140 C   0  0  0  0  0  0  0  0  0  2  0  0
   -6.4520    5.6300    6.8680 N   0  0  0  0  0  0  0  0  0  0  0  0
   -6.2260    6.5240    7.8670 N   0  0  0  0  0  0  0  0  0  0  0  0
   -7.1930    6.7500    8.7820 C   0  0  0  0  0  0  0  0  0  0  0  0
   -8.4240    6.1170    8.7580 C   0  0  0  0  0  0  0  0  0  0  0  0
   -9.3950    6.3570    9.7450 N   0  0  0  0  0  0  0  0  0  0  0  0
  -10.5620    5.6840    9.7600 C   0  0  0  0  0  0  0  0  0  0  0  0
  -11.5770    5.6820   10.5960 N   0  0  0  0  0  0  0  0  0  0  0  0
  -12.4690    4.7490   10.1080 N   0  0  0  0  0  0  0  0  0  0  0  0
  -12.0160    4.1880    8.9920 N   0  0  0  0  0  0  0  0  0  0  0  0
  -10.8400    4.7900    8.7610 N   0  0  0  0  0  0  0  0  0  0  0  0
   -9.9950    4.4790    7.6090 C   0  0  0  0  0  0  0  0  0  0  0  0
   -8.6630    5.2070    7.7200 C   0  0  0  0  0  0  0  0  0  0  0  0
  -10.7490    4.8610    6.3730 C   0  0  0  0  0  0  0  0  0  0  0  0
  -11.0350    6.2020    6.1170 C   0  0  0  0  0  0  0  0  0  0  0  0
  -11.7370    6.5580    4.9650 C   0  0  0  0  0  0  0  0  0  0  0  0
  -12.1550    5.5730    4.0710 C   0  0  0  0  0  0  0  0  0  0  0  0
  -11.8700    4.2310    4.3270 C   0  0  0  0  0  0  0  0  0  0  0  0
  -11.1660    3.8760    5.4790 C   0  0  0  0  0  0  0  0  0  0  0  0
  -12.0160    7.8660    4.7150 O   0  0  0  0  0  0  0  0  0  0  0  0
   -6.8990    7.6510    9.7710 O   0  0  0  0  0  0  0  0  0  0  0  0
   -6.7600    3.0843    5.3729 C   0  0  0  0  0  0  0  0  0  0  0  0
   -6.9102    2.1363    4.3387 C   0  0  0  0  0  0  0  0  0  0  0  0
   -5.8418    1.2647    4.0789 O   0  0  0  0  0  0  0  0  0  0  0  0
   -5.9516   -0.0068    3.5001 C   0  0  0  0  0  0  0  0  0  0  0  0
   -7.0557   -0.6153    3.4679 O   0  0  0  0  0  0  0  0  0  0  0  0
   -4.7217   -0.6946    3.0131 C   0  0  0  0  0  0  0  0  0  0  0  0
   -4.2658   -1.6062    4.0089 O   0  0  0  0  0  0  0  0  0  0  0  0
   -3.1361   -2.4273    3.8751 C   0  0  0  0  0  0  0  0  0  0  0  0
   -2.8278   -3.3111    4.9158 C   0  0  0  0  0  0  0  0  0  0  0  0
   -1.7146   -4.1526    4.8288 C   0  0  0  0  0  0  0  0  0  0  0  0
   -0.8827   -4.1083    3.7006 C   0  0  0  0  0  0  0  0  0  0  0  0
    0.2923   -5.0335    3.5848 C   0  0  0  0  0  0  0  0  0  0  0  0
   -1.1965   -3.2360    2.6485 C   0  0  0  0  0  0  0  0  0  0  0  0
   -2.3102   -2.3948    2.7354 C   0  0  0  0  0  0  0  0  0  0  0  0
   -8.0987    2.1172    3.5773 C   0  0  0  0  0  0  0  0  0  0  0  0
   -9.1004    3.0273    3.8941 C   0  0  0  0  0  0  0  0  0  0  0  0
  -10.5939    3.2347    3.1503 S   0  0  0  0  0  0  0  0  0  0  0  0
  -10.9712    4.5071    4.1984 C   0  0  0  0  0  0  0  0  0  0  0  0
  -12.0508    5.1525    4.1659 O   0  0  0  0  0  0  0  0  0  0  0  0
  -10.0063    4.7585    5.0638 O   0  0  0  0  0  0  0  0  0  0  0  0
   -8.9641    3.9527    4.9174 C   0  0  0  0  0  0  0  0  0  0  0  0
  1  3  4  0
  1 14  4  0
  1  2  1  0
  3  4  4  0
  4  5  4  0
  5  6  4  0
  5 22  1  0
  6  7  1  0
  6 14  4  0
  7  8  1  0
  8  9  4  0
  8 12  4  0
  9 10  4  0
 10 11  4  0
 11 12  4  0
 12 13  1  0
 13 14  1  0
 13 15  1  6
 15 16  4  0
 15 20  4  0
 16 17  4  0
 17 18  4  0
 17 21  1  0
 18 19  4  0
 19 20  4  0
 23 24  4  0
 24 25  1  0
 25 26  1  0
 26 27  2  0
 26 28  1  0
 28 29  1  0
 29 30  1  0
 30 31  4  0
 31 32  4  0
 32 33  4  0
 33 34  1  0
 33 35  4  0
 35 36  4  0
 24 37  4  0
 37 38  4  0
 38 39  4  0
 39 40  4  0
 40 41  2  0
 40 42  4  0
 42 43  4  0
 36 30  4  0
 43 38  4  0
  2 23  4  0
  2 43  4  0
M  END
$$$$

     RDKit          3D

 49 56  0  0  0  0  0  0  0  0999 V2000
   -7.6410    4.9930    6.8080 C   0  0  0  0  0  0  0  0  0  1  0  0
   -7.7310    4.0530    5.7140 C   0  0  0  0  0  0  0  0  0  2  0  0
   -6.4520    5.6300    6.8680 N   0  0  0  0  0  0  0  0  0  0  0  0
   -6.2260    6.5240    7.8670 N   0  0  0  0  0  0  0  0  0  0  0  0
   -7.1930    6.7500    8.7820 C   0  0  0  0  0  0  0  0  0  0  0  0
   -8.4240    6.1170    8.7580 C   0  0  0  0  0  0  0  0  0  0  0  0
   -9.3950    6.3570    9.7450 N   0  0  0  0  0  0  0  0  0  0  0  0
  -10.5620    5.6840    9.7600 C   0  0  0  0  0  0  0  0  0  0  0  0
  -11.5770    5.6820   10.5960 N   0  0  0  0  0  0  0  0  0  0  0  0
  -12.4690    4.7490   10.1080 N   0  0  0  0  0  0  0  0  0  0  0  0
  -12.0160    4.1880    8.9920 N   0  0  0  0  0  0  0  0  0  0  0  0
  -10.8400    4.7900    8.7610 N   0  0  0  0  0  0  0  0  0  0  0  0
   -9.9950    4.4790    7.6090 C   0  0  0  0  0  0  0  0  0  0  0  0
   -8.6630    5.2070    7.7200 C   0  0  0  0  0  0  0  0  0  0  0  0
  -10.7490    4.8610    6.3730 C   0  0  0  0  0  0  0  0  0  0  0  0
  -11.0350    6.2020    6.1170 C   0  0  0  0  0  0  0  0  0  0  0  0
  -11.7370    6.5580    4.9650 C   0  0  0  0  0  0  0  0  0  0  0  0
  -12.1550    5.5730    4.0710 C   0  0  0  0  0  0  0  0  0  0  0  0
  -11.8700    4.2310    4.3270 C   0  0  0  0  0  0  0  0  0  0  0  0
  -11.1660    3.8760    5.4790 C   0  0  0  0  0  0  0  0  0  0  0  0
  -12.0160    7.8660    4.7150 O   0  0  0  0  0  0  0  0  0  0  0  0
   -6.8990    7.6510    9.7710 O   0  0  0  0  0  0  0  0  0  0  0  0
   -6.6813    2.7877    5.3339 S   0  0  0  0  0  0  0  0  0  0  0  0
   -7.5181    2.2621    3.9688 C   0  0  0  0  0  0  0  0  0  1  0  0
   -7.0971    1.1698    3.0628 C   0  0  0  0  0  0  0  0  0  2  0  0
   -5.9922    0.3553    3.3749 C   0  0  0  0  0  0  0  0  0  0  0  0
   -5.5999   -0.6680    2.5065 C   0  0  0  0  0  0  0  0  0  0  0  0
   -6.3021   -0.8885    1.3197 C   0  0  0  0  0  0  0  0  0  0  0  0
   -7.3999   -0.0867    0.9988 C   0  0  0  0  0  0  0  0  0  0  0  0
   -7.7982    0.9358    1.8651 C   0  0  0  0  0  0  0  0  0  0  0  0
   -8.6209    3.0175    3.7623 N   0  0  0  0  0  0  0  0  0  0  0  0
   -8.7879    3.9784    4.7125 C   0  0  0  0  0  0  0  0  0  0  0  0
   -9.8550    5.0257    4.5554 C   0  0  0  0  0  0  0  0  0  0  0  0
   -9.3430    6.2185    3.8046 C   0  0  0  0  0  0  0  0  0  0  0  0
  -10.1560    7.1100    3.4373 O   0  0  0  0  0  0  0  0  0  0  0  0
   -7.9766    6.3442    3.5209 O   0  0  0  0  0  0  0  0  0  0  0  0
   -7.4446    7.3492    2.6625 C   0  0  0  0  0  0  0  0  0  0  0  0
   -7.8138    7.0590    1.2386 C   0  0  0  0  0  0  0  0  0  0  0  0
   -7.4004    5.8762    0.6255 C   0  0  0  0  0  0  0  0  0  0  0  0
   -7.7731    5.6345   -0.6976 C   0  0  0  0  0  0  0  0  0  0  0  0
   -7.3950    4.5643   -1.2482 O   0  0  0  0  0  0  0  0  0  0  0  0
   -8.5376    6.5498   -1.3799 N   0  0  0  0  0  0  0  0  0  0  0  0
   -8.9085    6.3241   -2.6811 C   0  0  0  0  0  0  0  0  0  0  0  0
   -9.6904    7.2503   -3.3741 C   0  0  0  0  0  0  0  0  0  0  0  0
  -10.1142    8.4176   -2.7345 C   0  0  0  0  0  0  0  0  0  0  0  0
  -10.9258    9.4339   -3.4820 C   0  0  0  0  0  0  0  0  0  0  0  0
   -9.7202    8.6515   -1.4138 C   0  0  0  0  0  0  0  0  0  0  0  0
   -8.9354    7.7069   -0.7445 C   0  0  0  0  0  0  0  0  0  0  0  0
   -8.5689    7.9443    0.5422 N   0  0  0  0  0  0  0  0  0  0  0  0
  1  3  4  0
  1 14  4  0
  1  2  1  0
  3  4  4  0
  4  5  4  0
  5  6  4  0
  5 22  1  0
  6  7  1  0
  6 14  4  0
  7  8  1  0
  8  9  4  0
  8 12  4  0
  9 10  4  0
 10 11  4  0
 11 12  4  0
 12 13  1  0
 13 14  1  0
 13 15  1  6
 15 16  4  0
 15 20  4  0
 16 17  4  0
 17 18  4  0
 17 21  1  0
 18 19  4  0
 19 20  4  0
 23 24  4  0
 24 25  1  0
 25 26  4  0
 26 27  4  0
 27 28  4  0
 28 29  4  0
 29 30  4  0
 24 31  4  0
 31 32  4  0
 32 33  1  0
 33 34  1  0
 34 35  2  0
 34 36  1  0
 36 37  1  0
 37 38  1  0
 38 39  4  0
 39 40  4  0
 40 41  2  0
 40 42  4  0
 42 43  4  0
 43 44  4  0
 44 45  4  0
 45 46  1  0
 45 47  4  0
 47 48  4  0
 48 49  4  0
 49 38  4  0
 30 25  4  0
 48 42  4  0
  2 23  4  0
  2 32  4  0
M  END
$$$$

     RDKit          3D

 49 56  0  0  0  0  0  0  0  0999 V2000
   -7.6410    4.9930    6.8080 C   0  0  0  0  0  0  0  0  0  1  0  0
   -7.7310    4.0530    5.7140 C   0  0  0  0  0  0  0  0  0  2  0  0
   -6.4520    5.6300    6.8680 N   0  0  0  0  0  0  0  0  0  0  0  0
   -6.2260    6.5240    7.8670 N   0  0  0  0  0  0  0  0  0  0  0  0
   -7.1930    6.7500    8.7820 C   0  0  0  0  0  0  0  0  0  0  0  0
   -8.4240    6.1170    8.7580 C   0  0  0  0  0  0  0  0  0  0  0  0
   -9.3950    6.3570    9.7450 N   0  0  0  0  0  0  0  0  0  0  0  0
  -10.5620    5.6840    9.7600 C   0  0  0  0  0  0  0  0  0  0  0  0
  -11.5770    5.6820   10.5960 N   0  0  0  0  0  0  0  0  0  0  0  0
  -12.4690    4.7490   10.1080 N   0  0  0  0  0  0  0  0  0  0  0  0
  -12.0160    4.1880    8.9920 N   0  0  0  0  0  0  0  0  0  0  0  0
  -10.8400    4.7900    8.7610 N   0  0  0  0  0  0  0  0  0  0  0  0
   -9.9950    4.4790    7.6090 C   0  0  0  0  0  0  0  0  0  0  0  0
   -8.6630    5.2070    7.7200 C   0  0  0  0  0  0  0  0  0  0  0  0
  -10.7490    4.8610    6.3730 C   0  0  0  0  0  0  0  0  0  0  0  0
  -11.0350    6.2020    6.1170 C   0  0  0  0  0  0  0  0  0  0  0  0
  -11.7370    6.5580    4.9650 C   0  0  0  0  0  0  0  0  0  0  0  0
  -12.1550    5.5730    4.0710 C   0  0  0  0  0  0  0  0  0  0  0  0
  -11.8700    4.2310    4.3270 C   0  0  0  0  0  0  0  0  0  0  0  0
  -11.1660    3.8760    5.4790 C   0  0  0  0  0  0  0  0  0  0  0  0
  -12.0160    7.8660    4.7150 O   0  0  0  0  0  0  0  0  0  0  0  0
   -6.8990    7.6510    9.7710 O   0  0  0  0  0  0  0  0  0  0  0  0
   -6.6126    2.8757    5.2594 S   0  0  0  0  0  0  0  0  0  0  0  0
   -7.5299    2.2106    4.0121 C   0  0  0  0  0  0  0  0  0  1  0  0
   -7.1145    1.0956    3.1301 C   0  0  0  0  0  0  0  0  0  2  0  0
   -7.9668    0.6536    2.1017 C   0  0  0  0  0  0  0  0  0  0  0  0
   -7.5795   -0.3946    1.2596 C   0  0  0  0  0  0  0  0  0  0  0  0
   -6.3393   -1.0110    1.4344 C   0  0  0  0  0  0  0  0  0  0  0  0
   -5.4870   -0.5850    2.4545 C   0  0  0  0  0  0  0  0  0  0  0  0
   -5.8695    0.4621    3.3005 C   0  0  0  0  0  0  0  0  0  0  0  0
   -8.7189    2.8453    3.9013 N   0  0  0  0  0  0  0  0  0  0  0  0
   -8.8754    3.8390    4.8200 C   0  0  0  0  0  0  0  0  0  0  0  0
  -10.1089    4.6983    4.8019 C   0  0  0  0  0  0  0  0  0  0  0  0
  -11.3176    3.8936    5.1665 C   0  0  0  0  0  0  0  0  0  0  0  0
  -11.3711    3.2988    6.2791 O   0  0  0  0  0  0  0  0  0  0  0  0
  -12.3819    3.8089    4.2677 O   0  0  0  0  0  0  0  0  0  0  0  0
  -13.5740    3.0842    4.5503 C   0  0  0  0  0  0  0  0  0  0  0  0
  -14.5761    3.3255    3.4637 C   0  0  0  0  0  0  0  0  0  0  0  0
  -14.3025    2.9609    2.1443 C   0  0  0  0  0  0  0  0  0  0  0  0
  -15.2524    3.2304    1.1556 C   0  0  0  0  0  0  0  0  0  0  0  0
  -14.9945    2.9085   -0.0398 O   0  0  0  0  0  0  0  0  0  0  0  0
  -16.4387    3.8423    1.4841 N   0  0  0  0  0  0  0  0  0  0  0  0
  -17.3722    4.1301    0.5207 C   0  0  0  0  0  0  0  0  0  0  0  0
  -18.5808    4.7467    0.8544 C   0  0  0  0  0  0  0  0  0  0  0  0
  -18.8543    5.0591    2.1886 C   0  0  0  0  0  0  0  0  0  0  0  0
  -20.1356    5.7435    2.5620 C   0  0  0  0  0  0  0  0  0  0  0  0
  -17.8908    4.7847    3.1639 C   0  0  0  0  0  0  0  0  0  0  0  0
  -16.6863    4.1753    2.7994 C   0  0  0  0  0  0  0  0  0  0  0  0
  -15.7596    3.9182    3.7596 N   0  0  0  0  0  0  0  0  0  0  0  0
  1  3  4  0
  1 14  4  0
  1  2  1  0
  3  4  4  0
  4  5  4  0
  5  6  4  0
  5 22  1  0
  6  7  1  0
  6 14  4  0
  7  8  1  0
  8  9  4  0
  8 12  4  0
  9 10  4  0
 10 11  4  0
 11 12  4  0
 12 13  1  0
 13 14  1  0
 13 15  1  6
 15 16  4  0
 15 20  4  0
 16 17  4  0
 17 18  4  0
 17 21  1  0
 18 19  4  0
 19 20  4  0
 23 24  4  0
 24 25  1  0
 25 26  4  0
 26 27  4  0
 27 28  4  0
 28 29  4  0
 29 30  4  0
 24 31  4  0
 31 32  4  0
 32 33  1  0
 33 34  1  0
 34 35  2  0
 34 36  1  0
 36 37  1  0
 37 38  1  0
 38 39  4  0
 39 40  4  0
 40 41  2  0
 40 42  4  0
 42 43  4  0
 43 44  4  0
 44 45  4  0
 45 46  1  0
 45 47  4  0
 47 48  4  0
 48 49  4  0
 49 38  4  0
 30 25  4  0
 48 42  4  0
  2 23  4  0
  2 32  4  0
M  END
$$$$

     RDKit          3D

 37 42  0  0  0  0  0  0  0  0999 V2000
   -7.6410    4.9930    6.8080 C   0  0  0  0  0  0  0  0  0  1  0  0
   -7.7310    4.0530    5.7140 C   0  0  0  0  0  0  0  0  0  2  0  0
   -6.4520    5.6300    6.8680 N   0  0  0  0  0  0  0  0  0  0  0  0
   -6.2260    6.5240    7.8670 N   0  0  0  0  0  0  0  0  0  0  0  0
   -7.1930    6.7500    8.7820 C   0  0  0  0  0  0  0  0  0  0  0  0
   -8.4240    6.1170    8.7580 C   0  0  0  0  0  0  0  0  0  0  0  0
   -9.3950    6.3570    9.7450 N   0  0  0  0  0  0  0  0  0  0  0  0
  -10.5620    5.6840    9.7600 C   0  0  0  0  0  0  0  0  0  0  0  0
  -11.5770    5.6820   10.5960 N   0  0  0  0  0  0  0  0  0  0  0  0
  -12.4690    4.7490   10.1080 N   0  0  0  0  0  0  0  0  0  0  0  0
  -12.0160    4.1880    8.9920 N   0  0  0  0  0  0  0  0  0  0  0  0
  -10.8400    4.7900    8.7610 N   0  0  0  0  0  0  0  0  0  0  0  0
   -9.9950    4.4790    7.6090 C   0  0  0  0  0  0  0  0  0  0  0  0
   -8.6630    5.2070    7.7200 C   0  0  0  0  0  0  0  0  0  0  0  0
  -10.7490    4.8610    6.3730 C   0  0  0  0  0  0  0  0  0  0  0  0
  -11.0350    6.2020    6.1170 C   0  0  0  0  0  0  0  0  0  0  0  0
  -11.7370    6.5580    4.9650 C   0  0  0  0  0  0  0  0  0  0  0  0
  -12.1550    5.5730    4.0710 C   0  0  0  0  0  0  0  0  0  0  0  0
  -11.8700    4.2310    4.3270 C   0  0  0  0  0  0  0  0  0  0  0  0
  -11.1660    3.8760    5.4790 C   0  0  0  0  0  0  0  0  0  0  0  0
  -12.0160    7.8660    4.7150 O   0  0  0  0  0  0  0  0  0  0  0  0
   -6.8990    7.6510    9.7710 O   0  0  0  0  0  0  0  0  0  0  0  0
   -6.9898    2.8454    5.7106 C   0  0  0  0  0  0  0  0  0  0  0  0
   -7.1329    1.8684    4.7246 C   0  0  0  0  0  0  0  0  0  0  0  0
   -8.0650    2.0390    3.7020 C   0  0  0  0  0  0  0  0  0  0  0  0
   -8.8518    3.1911    3.6559 C   0  0  0  0  0  0  0  0  0  0  0  0
   -8.7194    4.1907    4.6374 C   0  0  0  0  0  0  0  0  0  0  0  0
   -9.5315    5.4253    4.5146 C   0  0  0  0  0  0  0  0  0  0  0  0
   -9.0320    6.5399    4.8290 O   0  0  0  0  0  0  0  0  0  0  0  0
  -10.8790    5.3606    4.0246 N   0  0  0  0  0  0  0  0  0  0  0  0
  -11.6211    6.5478    3.6042 C   0  0  0  0  0  0  0  0  0  0  0  0
  -11.0298    7.1334    2.3175 C   0  0  0  0  0  0  0  0  0  0  0  0
  -10.9245    6.1088    1.2796 N   0  0  0  0  0  0  0  0  0  0  0  0
  -11.9376    5.4697    0.6634 C   0  0  0  0  0  0  0  0  0  0  0  0
  -11.3952    4.5729   -0.2332 C   0  0  0  0  0  0  0  0  0  0  0  0
  -10.0529    4.6607   -0.1709 N   0  0  0  0  0  0  0  0  0  0  0  0
   -9.7916    5.6024    0.7547 C   0  0  0  0  0  0  0  0  0  0  0  0
  1  3  4  0
  1 14  4  0
  1  2  1  0
  3  4  4  0
  4  5  4  0
  5  6  4  0
  5 22  1  0
  6  7  1  0
  6 14  4  0
  7  8  1  0
  8  9  4  0
  8 12  4  0
  9 10  4  0
 10 11  4  0
 11 12  4  0
 12 13  1  0
 13 14  1  0
 13 15  1  6
 15 16  4  0
 15 20  4  0
 16 17  4  0
 17 18  4  0
 17 21  1  0
 18 19  4  0
 19 20  4  0
 23 24  4  0
 24 25  4  0
 25 26  4  0
 26 27  4  0
 27 28  1  0
 28 29  2  0
 28 30  1  0
 30 31  1  0
 31 32  1  0
 32 33  1  0
 33 34  4  0
 34 35  4  0
 35 36  4  0
 36 37  4  0
 37 33  4  0
  2 23  4  0
  2 27  4  0
M  CHG  1  36   1
M  END
$$$$

     RDKit          3D

 37 42  0  0  0  0  0  0  0  0999 V2000
   -7.6410    4.9930    6.8080 C   0  0  0  0  0  0  0  0  0  1  0  0
   -7.7310    4.0530    5.7140 C   0  0  0  0  0  0  0  0  0  2  0  0
   -6.4520    5.6300    6.8680 N   0  0  0  0  0  0  0  0  0  0  0  0
   -6.2260    6.5240    7.8670 N   0  0  0  0  0  0  0  0  0  0  0  0
   -7.1930    6.7500    8.7820 C   0  0  0  0  0  0  0  0  0  0  0  0
   -8.4240    6.1170    8.7580 C   0  0  0  0  0  0  0  0  0  0  0  0
   -9.3950    6.3570    9.7450 N   0  0  0  0  0  0  0  0  0  0  0  0
  -10.5620    5.6840    9.7600 C   0  0  0  0  0  0  0  0  0  0  0  0
  -11.5770    5.6820   10.5960 N   0  0  0  0  0  0  0  0  0  0  0  0
  -12.4690    4.7490   10.1080 N   0  0  0  0  0  0  0  0  0  0  0  0
  -12.0160    4.1880    8.9920 N   0  0  0  0  0  0  0  0  0  0  0  0
  -10.8400    4.7900    8.7610 N   0  0  0  0  0  0  0  0  0  0  0  0
   -9.9950    4.4790    7.6090 C   0  0  0  0  0  0  0  0  0  0  0  0
   -8.6630    5.2070    7.7200 C   0  0  0  0  0  0  0  0  0  0  0  0
  -10.7490    4.8610    6.3730 C   0  0  0  0  0  0  0  0  0  0  0  0
  -11.0350    6.2020    6.1170 C   0  0  0  0  0  0  0  0  0  0  0  0
  -11.7370    6.5580    4.9650 C   0  0  0  0  0  0  0  0  0  0  0  0
  -12.1550    5.5730    4.0710 C   0  0  0  0  0  0  0  0  0  0  0  0
  -11.8700    4.2310    4.3270 C   0  0  0  0  0  0  0  0  0  0  0  0
  -11.1660    3.8760    5.4790 C   0  0  0  0  0  0  0  0  0  0  0  0
  -12.0160    7.8660    4.7150 O   0  0  0  0  0  0  0  0  0  0  0  0
   -6.8990    7.6510    9.7710 O   0  0  0  0  0  0  0  0  0  0  0  0
   -6.9448    2.8764    5.6640 C   0  0  0  0  0  0  0  0  0  0  0  0
   -7.0965    1.8996    4.6779 C   0  0  0  0  0  0  0  0  0  0  0  0
   -8.0865    2.0356    3.7044 C   0  0  0  0  0  0  0  0  0  0  0  0
   -8.9187    3.1567    3.7037 C   0  0  0  0  0  0  0  0  0  0  0  0
   -8.7636    4.1588    4.6743 C   0  0  0  0  0  0  0  0  0  0  0  0
   -9.6352    5.3497    4.6058 C   0  0  0  0  0  0  0  0  0  0  0  0
  -10.8850    5.1980    4.6523 O   0  0  0  0  0  0  0  0  0  0  0  0
   -9.0942    6.6723    4.4792 N   0  0  0  0  0  0  0  0  0  0  0  0
   -7.8178    6.9549    3.8217 C   0  0  0  0  0  0  0  0  0  0  0  0
   -7.8931    6.6830    2.3160 C   0  0  0  0  0  0  0  0  0  0  0  0
   -8.8284    7.5987    1.6647 N   0  0  0  0  0  0  0  0  0  0  0  0
  -10.1724    7.5081    1.6410 C   0  0  0  0  0  0  0  0  0  0  0  0
  -10.6595    8.5568    0.8896 C   0  0  0  0  0  0  0  0  0  0  0  0
   -9.6191    9.2879    0.4466 N   0  0  0  0  0  0  0  0  0  0  0  0
   -8.5170    8.6828    0.9275 C   0  0  0  0  0  0  0  0  0  0  0  0
  1  3  4  0
  1 14  4  0
  1  2  1  0
  3  4  4  0
  4  5  4  0
  5  6  4  0
  5 22  1  0
  6  7  1  0
  6 14  4  0
  7  8  1  0
  8  9  4  0
  8 12  4  0
  9 10  4  0
 10 11  4  0
 11 12  4  0
 12 13  1  0
 13 14  1  0
 13 15  1  6
 15 16  4  0
 15 20  4  0
 16 17  4  0
 17 18  4  0
 17 21  1  0
 18 19  4  0
 19 20  4  0
 23 24  4  0
 24 25  4  0
 25 26  4  0
 26 27  4  0
 27 28  1  0
 28 29  2  0
 28 30  1  0
 30 31  1  0
 31 32  1  0
 32 33  1  0
 33 34  4  0
 34 35  4  0
 35 36  4  0
 36 37  4  0
 37 33  4  0
  2 23  4  0
  2 27  4  0
M  CHG  1  36   1
M  END
$$$$

     RDKit          3D

 46 53  0  0  0  0  0  0  0  0999 V2000
   -7.6410    4.9930    6.8080 C   0  0  0  0  0  0  0  0  0  1  0  0
   -7.7310    4.0530    5.7140 C   0  0  0  0  0  0  0  0  0  2  0  0
   -6.4520    5.6300    6.8680 N   0  0  0  0  0  0  0  0  0  0  0  0
   -6.2260    6.5240    7.8670 N   0  0  0  0  0  0  0  0  0  0  0  0
   -7.1930    6.7500    8.7820 C   0  0  0  0  0  0  0  0  0  0  0  0
   -8.4240    6.1170    8.7580 C   0  0  0  0  0  0  0  0  0  0  0  0
   -9.3950    6.3570    9.7450 N   0  0  0  0  0  0  0  0  0  0  0  0
  -10.5620    5.6840    9.7600 C   0  0  0  0  0  0  0  0  0  0  0  0
  -11.5770    5.6820   10.5960 N   0  0  0  0  0  0  0  0  0  0  0  0
  -12.4690    4.7490   10.1080 N   0  0  0  0  0  0  0  0  0  0  0  0
  -12.0160    4.1880    8.9920 N   0  0  0  0  0  0  0  0  0  0  0  0
  -10.8400    4.7900    8.7610 N   0  0  0  0  0  0  0  0  0  0  0  0
   -9.9950    4.4790    7.6090 C   0  0  0  0  0  0  0  0  0  0  0  0
   -8.6630    5.2070    7.7200 C   0  0  0  0  0  0  0  0  0  0  0  0
  -10.7490    4.8610    6.3730 C   0  0  0  0  0  0  0  0  0  0  0  0
  -11.0350    6.2020    6.1170 C   0  0  0  0  0  0  0  0  0  0  0  0
  -11.7370    6.5580    4.9650 C   0  0  0  0  0  0  0  0  0  0  0  0
  -12.1550    5.5730    4.0710 C   0  0  0  0  0  0  0  0  0  0  0  0
  -11.8700    4.2310    4.3270 C   0  0  0  0  0  0  0  0  0  0  0  0
  -11.1660    3.8760    5.4790 C   0  0  0  0  0  0  0  0  0  0  0  0
  -12.0160    7.8660    4.7150 O   0  0  0  0  0  0  0  0  0  0  0  0
   -6.8990    7.6510    9.7710 O   0  0  0  0  0  0  0  0  0  0  0  0
   -6.9294    2.9450    5.6038 N   0  0  0  0  0  0  0  0  0  0  0  0
   -7.0465    1.9722    4.6430 C   0  0  0  0  0  0  0  0  0  0  0  0
   -6.1125    0.8283    4.6506 C   0  0  0  0  0  0  0  0  0  0  0  0
   -6.2616   -0.1087    3.8188 O   0  0  0  0  0  0  0  0  0  0  0  0
   -5.0465    0.7624    5.6082 N   0  0  0  0  0  0  0  0  0  0  0  0
   -4.2638   -0.4589    5.7918 C   0  0  0  0  0  0  0  0  0  0  0  0
   -3.2172   -0.2745    6.9002 C   0  0  0  0  0  0  0  0  0  0  0  0
   -2.5269   -1.5953    7.2726 C   0  0  0  0  0  0  0  0  0  0  0  0
   -1.7396   -2.1806    6.1249 C   0  0  0  0  0  0  0  0  0  0  0  0
   -2.1582   -3.3754    5.5133 C   0  0  0  0  0  0  0  0  0  0  0  0
   -1.4185   -3.9293    4.4635 C   0  0  0  0  0  0  0  0  0  0  0  0
   -0.2508   -3.2972    4.0220 C   0  0  0  0  0  0  0  0  0  0  0  0
    0.1747   -2.1113    4.6273 C   0  0  0  0  0  0  0  0  0  0  0  0
   -0.5649   -1.5520    5.6746 C   0  0  0  0  0  0  0  0  0  0  0  0
   -8.0828    2.0549    3.6855 C   0  0  0  0  0  0  0  0  0  0  0  0
   -8.9386    3.1473    3.7680 C   0  0  0  0  0  0  0  0  0  0  0  0
   -8.7983    4.1101    4.7405 C   0  0  0  0  0  0  0  0  0  0  0  0
   -9.7375    5.0768    4.6222 N   0  0  0  0  0  0  0  0  0  0  0  0
  -10.4866    4.7006    3.5632 C   0  0  0  0  0  0  0  0  0  0  0  0
  -11.6005    5.3589    3.0428 C   0  0  0  0  0  0  0  0  0  0  0  0
  -12.2498    4.7831    1.9352 C   0  0  0  0  0  0  0  0  0  0  0  0
  -11.7782    3.5733    1.3781 C   0  0  0  0  0  0  0  0  0  0  0  0
  -10.6505    2.9260    1.9193 C   0  0  0  0  0  0  0  0  0  0  0  0
  -10.0278    3.5216    3.0135 C   0  0  0  0  0  0  0  0  0  0  0  0
  1  3  4  0
  1 14  4  0
  1  2  1  0
  3  4  4  0
  4  5  4  0
  5  6  4  0
  5 22  1  0
  6  7  1  0
  6 14  4  0
  7  8  1  0
  8  9  4  0
  8 12  4  0
  9 10  4  0
 10 11  4  0
 11 12  4  0
 12 13  1  0
 13 14  1  0
 13 15  1  6
 15 16  4  0
 15 20  4  0
 16 17  4  0
 17 18  4  0
 17 21  1  0
 18 19  4  0
 19 20  4  0
 23 24  4  0
 24 25  1  0
 25 26  2  0
 25 27  1  0
 27 28  1  0
 28 29  1  0
 29 30  1  0
 30 31  1  0
 31 32  4  0
 32 33  4  0
 33 34  4  0
 34 35  4  0
 35 36  4  0
 24 37  4  0
 37 38  4  0
 38 39  4  0
 39 40  4  0
 40 41  4  0
 41 42  4  0
 42 43  4  0
 43 44  4  0
 44 45  4  0
 45 46  4  0
 46 41  4  0
 36 31  4  0
 46 38  4  0
  2 23  4  0
  2 39  4  0
M  END
$$$$

     RDKit          3D

 46 53  0  0  0  0  0  0  0  0999 V2000
   -7.6410    4.9930    6.8080 C   0  0  0  0  0  0  0  0  0  1  0  0
   -7.7310    4.0530    5.7140 C   0  0  0  0  0  0  0  0  0  2  0  0
   -6.4520    5.6300    6.8680 N   0  0  0  0  0  0  0  0  0  0  0  0
   -6.2260    6.5240    7.8670 N   0  0  0  0  0  0  0  0  0  0  0  0
   -7.1930    6.7500    8.7820 C   0  0  0  0  0  0  0  0  0  0  0  0
   -8.4240    6.1170    8.7580 C   0  0  0  0  0  0  0  0  0  0  0  0
   -9.3950    6.3570    9.7450 N   0  0  0  0  0  0  0  0  0  0  0  0
  -10.5620    5.6840    9.7600 C   0  0  0  0  0  0  0  0  0  0  0  0
  -11.5770    5.6820   10.5960 N   0  0  0  0  0  0  0  0  0  0  0  0
  -12.4690    4.7490   10.1080 N   0  0  0  0  0  0  0  0  0  0  0  0
  -12.0160    4.1880    8.9920 N   0  0  0  0  0  0  0  0  0  0  0  0
  -10.8400    4.7900    8.7610 N   0  0  0  0  0  0  0  0  0  0  0  0
   -9.9950    4.4790    7.6090 C   0  0  0  0  0  0  0  0  0  0  0  0
   -8.6630    5.2070    7.7200 C   0  0  0  0  0  0  0  0  0  0  0  0
  -10.7490    4.8610    6.3730 C   0  0  0  0  0  0  0  0  0  0  0  0
  -11.0350    6.2020    6.1170 C   0  0  0  0  0  0  0  0  0  0  0  0
  -11.7370    6.5580    4.9650 C   0  0  0  0  0  0  0  0  0  0  0  0
  -12.1550    5.5730    4.0710 C   0  0  0  0  0  0  0  0  0  0  0  0
  -11.8700    4.2310    4.3270 C   0  0  0  0  0  0  0  0  0  0  0  0
  -11.1660    3.8760    5.4790 C   0  0  0  0  0  0  0  0  0  0  0  0
  -12.0160    7.8660    4.7150 O   0  0  0  0  0  0  0  0  0  0  0  0
   -6.8990    7.6510    9.7710 O   0  0  0  0  0  0  0  0  0  0  0  0
   -6.8532    3.0137    5.5364 N   0  0  0  0  0  0  0  0  0  0  0  0
   -6.9108    2.0927    4.5205 C   0  0  0  0  0  0  0  0  0  0  0  0
   -5.8710    1.0497    4.4400 C   0  0  0  0  0  0  0  0  0  0  0  0
   -5.2543    0.7161    5.4889 O   0  0  0  0  0  0  0  0  0  0  0  0
   -5.5354    0.4338    3.1872 N   0  0  0  0  0  0  0  0  0  0  0  0
   -4.6636   -0.7407    3.1266 C   0  0  0  0  0  0  0  0  0  0  0  0
   -4.4648   -1.2215    1.6843 C   0  0  0  0  0  0  0  0  0  0  0  0
   -5.7442   -1.8355    1.0992 C   0  0  0  0  0  0  0  0  0  0  0  0
   -5.5294   -2.2559   -0.3311 C   0  0  0  0  0  0  0  0  0  0  0  0
   -6.1168   -1.5325   -1.3829 C   0  0  0  0  0  0  0  0  0  0  0  0
   -5.9147   -1.9280   -2.7100 C   0  0  0  0  0  0  0  0  0  0  0  0
   -5.1289   -3.0478   -2.9958 C   0  0  0  0  0  0  0  0  0  0  0  0
   -4.5427   -3.7740   -1.9546 C   0  0  0  0  0  0  0  0  0  0  0  0
   -4.7428   -3.3823   -0.6264 C   0  0  0  0  0  0  0  0  0  0  0  0
   -7.9627    2.1492    3.5810 C   0  0  0  0  0  0  0  0  0  0  0  0
   -8.8937    3.1702    3.7312 C   0  0  0  0  0  0  0  0  0  0  0  0
   -8.8117    4.0903    4.7521 C   0  0  0  0  0  0  0  0  0  0  0  0
   -9.7944    5.0174    4.6634 N   0  0  0  0  0  0  0  0  0  0  0  0
  -10.5104    4.6558    3.5759 C   0  0  0  0  0  0  0  0  0  0  0  0
  -11.6320    5.2984    3.0537 C   0  0  0  0  0  0  0  0  0  0  0  0
  -12.2187    4.7611    1.8909 C   0  0  0  0  0  0  0  0  0  0  0  0
  -11.6795    3.6049    1.2810 C   0  0  0  0  0  0  0  0  0  0  0  0
  -10.5466    2.9735    1.8250 C   0  0  0  0  0  0  0  0  0  0  0  0
   -9.9881    3.5273    2.9771 C   0  0  0  0  0  0  0  0  0  0  0  0
  1  3  4  0
  1 14  4  0
  1  2  1  0
  3  4  4  0
  4  5  4  0
  5  6  4  0
  5 22  1  0
  6  7  1  0
  6 14  4  0
  7  8  1  0
  8  9  4  0
  8 12  4  0
  9 10  4  0
 10 11  4  0
 11 12  4  0
 12 13  1  0
 13 14  1  0
 13 15  1  6
 15 16  4  0
 15 20  4  0
 16 17  4  0
 17 18  4  0
 17 21  1  0
 18 19  4  0
 19 20  4  0
 23 24  4  0
 24 25  1  0
 25 26  2  0
 25 27  1  0
 27 28  1  0
 28 29  1  0
 29 30  1  0
 30 31  1  0
 31 32  4  0
 32 33  4  0
 33 34  4  0
 34 35  4  0
 35 36  4  0
 24 37  4  0
 37 38  4  0
 38 39  4  0
 39 40  4  0
 40 41  4  0
 41 42  4  0
 42 43  4  0
 43 44  4  0
 44 45  4  0
 45 46  4  0
 46 41  4  0
 36 31  4  0
 46 38  4  0
  2 23  4  0
  2 39  4  0
M  END
$$$$

     RDKit          3D

 46 53  0  0  0  0  0  0  0  0999 V2000
   -7.6410    4.9930    6.8080 C   0  0  0  0  0  0  0  0  0  1  0  0
   -7.7310    4.0530    5.7140 C   0  0  0  0  0  0  0  0  0  2  0  0
   -6.4520    5.6300    6.8680 N   0  0  0  0  0  0  0  0  0  0  0  0
   -6.2260    6.5240    7.8670 N   0  0  0  0  0  0  0  0  0  0  0  0
   -7.1930    6.7500    8.7820 C   0  0  0  0  0  0  0  0  0  0  0  0
   -8.4240    6.1170    8.7580 C   0  0  0  0  0  0  0  0  0  0  0  0
   -9.3950    6.3570    9.7450 N   0  0  0  0  0  0  0  0  0  0  0  0
  -10.5620    5.6840    9.7600 C   0  0  0  0  0  0  0  0  0  0  0  0
  -11.5770    5.6820   10.5960 N   0  0  0  0  0  0  0  0  0  0  0  0
  -12.4690    4.7490   10.1080 N   0  0  0  0  0  0  0  0  0  0  0  0
  -12.0160    4.1880    8.9920 N   0  0  0  0  0  0  0  0  0  0  0  0
  -10.8400    4.7900    8.7610 N   0  0  0  0  0  0  0  0  0  0  0  0
   -9.9950    4.4790    7.6090 C   0  0  0  0  0  0  0  0  0  0  0  0
   -8.6630    5.2070    7.7200 C   0  0  0  0  0  0  0  0  0  0  0  0
  -10.7490    4.8610    6.3730 C   0  0  0  0  0  0  0  0  0  0  0  0
  -11.0350    6.2020    6.1170 C   0  0  0  0  0  0  0  0  0  0  0  0
  -11.7370    6.5580    4.9650 C   0  0  0  0  0  0  0  0  0  0  0  0
  -12.1550    5.5730    4.0710 C   0  0  0  0  0  0  0  0  0  0  0  0
  -11.8700    4.2310    4.3270 C   0  0  0  0  0  0  0  0  0  0  0  0
  -11.1660    3.8760    5.4790 C   0  0  0  0  0  0  0  0  0  0  0  0
  -12.0160    7.8660    4.7150 O   0  0  0  0  0  0  0  0  0  0  0  0
   -6.8990    7.6510    9.7710 O   0  0  0  0  0  0  0  0  0  0  0  0
   -6.8319    3.0389    5.5131 N   0  0  0  0  0  0  0  0  0  0  0  0
   -6.8767    2.1188    4.4950 C   0  0  0  0  0  0  0  0  0  0  0  0
   -5.7745    1.1359    4.3858 C   0  0  0  0  0  0  0  0  0  0  0  0
   -4.7761    1.2610    5.1454 O   0  0  0  0  0  0  0  0  0  0  0  0
   -5.8072    0.0547    3.4393 N   0  0  0  0  0  0  0  0  0  0  0  0
   -4.5876   -0.6647    3.0757 C   0  0  0  0  0  0  0  0  0  0  0  0
   -4.8405   -1.6105    1.8910 C   0  0  0  0  0  0  0  0  0  0  0  0
   -3.5398   -2.2256    1.3555 C   0  0  0  0  0  0  0  0  0  0  0  0
   -2.9331   -3.2091    2.3251 C   0  0  0  0  0  0  0  0  0  0  0  0
   -1.7540   -2.8872    3.0205 C   0  0  0  0  0  0  0  0  0  0  0  0
   -1.1749   -3.8114    3.8947 C   0  0  0  0  0  0  0  0  0  0  0  0
   -1.7629   -5.0679    4.0783 C   0  0  0  0  0  0  0  0  0  0  0  0
   -2.9369   -5.3962    3.3928 C   0  0  0  0  0  0  0  0  0  0  0  0
   -3.5218   -4.4727    2.5184 C   0  0  0  0  0  0  0  0  0  0  0  0
   -7.9372    2.1690    3.5601 C   0  0  0  0  0  0  0  0  0  0  0  0
   -8.8920    3.1649    3.7330 C   0  0  0  0  0  0  0  0  0  0  0  0
   -8.8224    4.0751    4.7634 C   0  0  0  0  0  0  0  0  0  0  0  0
   -9.8152    4.9918    4.6819 N   0  0  0  0  0  0  0  0  0  0  0  0
  -10.5267    4.6325    3.5917 C   0  0  0  0  0  0  0  0  0  0  0  0
  -11.6549    5.2697    3.0782 C   0  0  0  0  0  0  0  0  0  0  0  0
  -12.2368    4.7398    1.9122 C   0  0  0  0  0  0  0  0  0  0  0  0
  -11.6823    3.5999    1.2865 C   0  0  0  0  0  0  0  0  0  0  0  0
  -10.5415    2.9741    1.8219 C   0  0  0  0  0  0  0  0  0  0  0  0
   -9.9901    3.5188    2.9812 C   0  0  0  0  0  0  0  0  0  0  0  0
  1  3  4  0
  1 14  4  0
  1  2  1  0
  3  4  4  0
  4  5  4  0
  5  6  4  0
  5 22  1  0
  6  7  1  0
  6 14  4  0
  7  8  1  0
  8  9  4  0
  8 12  4  0
  9 10  4  0
 10 11  4  0
 11 12  4  0
 12 13  1  0
 13 14  1  0
 13 15  1  6
 15 16  4  0
 15 20  4  0
 16 17  4  0
 17 18  4  0
 17 21  1  0
 18 19  4  0
 19 20  4  0
 23 24  4  0
 24 25  1  0
 25 26  2  0
 25 27  1  0
 27 28  1  0
 28 29  1  0
 29 30  1  0
 30 31  1  0
 31 32  4  0
 32 33  4  0
 33 34  4  0
 34 35  4  0
 35 36  4  0
 24 37  4  0
 37 38  4  0
 38 39  4  0
 39 40  4  0
 40 41  4  0
 41 42  4  0
 42 43  4  0
 43 44  4  0
 44 45  4  0
 45 46  4  0
 46 41  4  0
 36 31  4  0
 46 38  4  0
  2 23  4  0
  2 39  4  0
M  END
$$$$

     RDKit          3D

 46 53  0  0  0  0  0  0  0  0999 V2000
   -7.6410    4.9930    6.8080 C   0  0  0  0  0  0  0  0  0  1  0  0
   -7.7310    4.0530    5.7140 C   0  0  0  0  0  0  0  0  0  2  0  0
   -6.4520    5.6300    6.8680 N   0  0  0  0  0  0  0  0  0  0  0  0
   -6.2260    6.5240    7.8670 N   0  0  0  0  0  0  0  0  0  0  0  0
   -7.1930    6.7500    8.7820 C   0  0  0  0  0  0  0  0  0  0  0  0
   -8.4240    6.1170    8.7580 C   0  0  0  0  0  0  0  0  0  0  0  0
   -9.3950    6.3570    9.7450 N   0  0  0  0  0  0  0  0  0  0  0  0
  -10.5620    5.6840    9.7600 C   0  0  0  0  0  0  0  0  0  0  0  0
  -11.5770    5.6820   10.5960 N   0  0  0  0  0  0  0  0  0  0  0  0
  -12.4690    4.7490   10.1080 N   0  0  0  0  0  0  0  0  0  0  0  0
  -12.0160    4.1880    8.9920 N   0  0  0  0  0  0  0  0  0  0  0  0
  -10.8400    4.7900    8.7610 N   0  0  0  0  0  0  0  0  0  0  0  0
   -9.9950    4.4790    7.6090 C   0  0  0  0  0  0  0  0  0  0  0  0
   -8.6630    5.2070    7.7200 C   0  0  0  0  0  0  0  0  0  0  0  0
  -10.7490    4.8610    6.3730 C   0  0  0  0  0  0  0  0  0  0  0  0
  -11.0350    6.2020    6.1170 C   0  0  0  0  0  0  0  0  0  0  0  0
  -11.7370    6.5580    4.9650 C   0  0  0  0  0  0  0  0  0  0  0  0
  -12.1550    5.5730    4.0710 C   0  0  0  0  0  0  0  0  0  0  0  0
  -11.8700    4.2310    4.3270 C   0  0  0  0  0  0  0  0  0  0  0  0
  -11.1660    3.8760    5.4790 C   0  0  0  0  0  0  0  0  0  0  0  0
  -12.0160    7.8660    4.7150 O   0  0  0  0  0  0  0  0  0  0  0  0
   -6.8990    7.6510    9.7710 O   0  0  0  0  0  0  0  0  0  0  0  0
   -6.8603    3.0072    5.5434 N   0  0  0  0  0  0  0  0  0  0  0  0
   -6.9405    2.0610    4.5525 C   0  0  0  0  0  0  0  0  0  0  0  0
   -5.9097    1.0083    4.4809 C   0  0  0  0  0  0  0  0  0  0  0  0
   -4.9847    0.9799    5.3359 O   0  0  0  0  0  0  0  0  0  0  0  0
   -5.9530    0.0005    3.4685 N   0  0  0  0  0  0  0  0  0  0  0  0
   -5.3681    0.2200    2.1491 C   0  0  0  0  0  0  0  0  0  0  0  0
   -3.8367    0.2419    2.2354 C   0  0  0  0  0  0  0  0  0  0  0  0
   -3.1837    0.4411    0.8596 C   0  0  0  0  0  0  0  0  0  0  0  0
   -3.3850   -0.7501   -0.0435 C   0  0  0  0  0  0  0  0  0  0  0  0
   -2.7323   -1.9647    0.2304 C   0  0  0  0  0  0  0  0  0  0  0  0
   -2.9192   -3.0704   -0.6049 C   0  0  0  0  0  0  0  0  0  0  0  0
   -3.7562   -2.9721   -1.7193 C   0  0  0  0  0  0  0  0  0  0  0  0
   -4.4051   -1.7666   -2.0018 C   0  0  0  0  0  0  0  0  0  0  0  0
   -4.2205   -0.6576   -1.1695 C   0  0  0  0  0  0  0  0  0  0  0  0
   -8.0047    2.1044    3.6256 C   0  0  0  0  0  0  0  0  0  0  0  0
   -8.9265    3.1357    3.7648 C   0  0  0  0  0  0  0  0  0  0  0  0
   -8.8253    4.0752    4.7662 C   0  0  0  0  0  0  0  0  0  0  0  0
   -9.8041    5.0055    4.6735 N   0  0  0  0  0  0  0  0  0  0  0  0
  -10.5362    4.6289    3.6029 C   0  0  0  0  0  0  0  0  0  0  0  0
  -11.6579    5.2721    3.0819 C   0  0  0  0  0  0  0  0  0  0  0  0
  -12.2626    4.7189    1.9376 C   0  0  0  0  0  0  0  0  0  0  0  0
  -11.7376    3.5495    1.3414 C   0  0  0  0  0  0  0  0  0  0  0  0
  -10.6029    2.9190    1.8833 C   0  0  0  0  0  0  0  0  0  0  0  0
  -10.0283    3.4863    3.0191 C   0  0  0  0  0  0  0  0  0  0  0  0
  1  3  4  0
  1 14  4  0
  1  2  1  0
  3  4  4  0
  4  5  4  0
  5  6  4  0
  5 22  1  0
  6  7  1  0
  6 14  4  0
  7  8  1  0
  8  9  4  0
  8 12  4  0
  9 10  4  0
 10 11  4  0
 11 12  4  0
 12 13  1  0
 13 14  1  0
 13 15  1  6
 15 16  4  0
 15 20  4  0
 16 17  4  0
 17 18  4  0
 17 21  1  0
 18 19  4  0
 19 20  4  0
 23 24  4  0
 24 25  1  0
 25 26  2  0
 25 27  1  0
 27 28  1  0
 28 29  1  0
 29 30  1  0
 30 31  1  0
 31 32  4  0
 32 33  4  0
 33 34  4  0
 34 35  4  0
 35 36  4  0
 24 37  4  0
 37 38  4  0
 38 39  4  0
 39 40  4  0
 40 41  4  0
 41 42  4  0
 42 43  4  0
 43 44  4  0
 44 45  4  0
 45 46  4  0
 46 41  4  0
 36 31  4  0
 46 38  4  0
  2 23  4  0
  2 39  4  0
M  END
$$$$

     RDKit          3D

 50 56  0  0  0  0  0  0  0  0999 V2000
   -7.6410    4.9930    6.8080 C   0  0  0  0  0  0  0  0  0  1  0  0
   -7.7310    4.0530    5.7140 C   0  0  0  0  0  0  0  0  0  2  0  0
   -6.4520    5.6300    6.8680 N   0  0  0  0  0  0  0  0  0  0  0  0
   -6.2260    6.5240    7.8670 N   0  0  0  0  0  0  0  0  0  0  0  0
   -7.1930    6.7500    8.7820 C   0  0  0  0  0  0  0  0  0  0  0  0
   -8.4240    6.1170    8.7580 C   0  0  0  0  0  0  0  0  0  0  0  0
   -9.3950    6.3570    9.7450 N   0  0  0  0  0  0  0  0  0  0  0  0
  -10.5620    5.6840    9.7600 C   0  0  0  0  0  0  0  0  0  0  0  0
  -11.5770    5.6820   10.5960 N   0  0  0  0  0  0  0  0  0  0  0  0
  -12.4690    4.7490   10.1080 N   0  0  0  0  0  0  0  0  0  0  0  0
  -12.0160    4.1880    8.9920 N   0  0  0  0  0  0  0  0  0  0  0  0
  -10.8400    4.7900    8.7610 N   0  0  0  0  0  0  0  0  0  0  0  0
   -9.9950    4.4790    7.6090 C   0  0  0  0  0  0  0  0  0  0  0  0
   -8.6630    5.2070    7.7200 C   0  0  0  0  0  0  0  0  0  0  0  0
  -10.7490    4.8610    6.3730 C   0  0  0  0  0  0  0  0  0  0  0  0
  -11.0350    6.2020    6.1170 C   0  0  0  0  0  0  0  0  0  0  0  0
  -11.7370    6.5580    4.9650 C   0  0  0  0  0  0  0  0  0  0  0  0
  -12.1550    5.5730    4.0710 C   0  0  0  0  0  0  0  0  0  0  0  0
  -11.8700    4.2310    4.3270 C   0  0  0  0  0  0  0  0  0  0  0  0
  -11.1660    3.8760    5.4790 C   0  0  0  0  0  0  0  0  0  0  0  0
  -12.0160    7.8660    4.7150 O   0  0  0  0  0  0  0  0  0  0  0  0
   -6.8990    7.6510    9.7710 O   0  0  0  0  0  0  0  0  0  0  0  0
   -6.8899    3.0091    5.2769 C   0  0  0  0  0  0  0  0  0  0  0  0
   -5.6189    2.6444    5.9291 C   0  0  0  0  0  0  0  0  0  0  0  0
   -4.6594    2.2417    5.2195 O   0  0  0  0  0  0  0  0  0  0  0  0
   -5.4820    2.7070    7.3563 N   0  0  0  0  0  0  0  0  0  0  0  0
   -4.2017    2.5095    8.0322 C   0  0  0  0  0  0  0  0  0  0  0  0
   -3.3312    3.7576    7.8979 C   0  0  0  0  0  0  0  0  0  0  0  0
   -2.1415    3.5977    8.6201 O   0  0  0  0  0  0  0  0  0  0  0  0
   -7.3727    2.3506    4.1971 N   0  0  0  0  0  0  0  0  0  0  0  0
   -8.5674    2.9030    3.9289 C   0  0  0  0  0  0  0  0  0  0  0  0
   -9.4468    2.5444    2.9112 C   0  0  0  0  0  0  0  0  0  0  0  0
  -10.6518    3.2587    2.7967 C   0  0  0  0  0  0  0  0  0  0  0  0
  -10.9490    4.3279    3.6833 C   0  0  0  0  0  0  0  0  0  0  0  0
  -12.1620    5.0881    3.5620 N   0  0  0  0  0  0  0  0  0  0  0  0
  -13.6028    4.4708    2.8162 S   0  0  0  0  0  0  0  0  0  0  0  0
  -13.8507    3.0738    3.3137 O   0  0  0  0  0  0  0  0  0  0  0  0
  -14.7689    5.3360    3.2035 O   0  0  0  0  0  0  0  0  0  0  0  0
  -13.4428    4.4815    1.0638 C   0  0  0  0  0  0  0  0  0  0  0  0
  -13.9975    3.4524    0.2976 C   0  0  0  0  0  0  0  0  0  0  0  0
  -13.8792    3.4631   -1.0952 C   0  0  0  0  0  0  0  0  0  0  0  0
  -13.2008    4.5124   -1.7598 C   0  0  0  0  0  0  0  0  0  0  0  0
  -13.0549    4.5704   -3.2950 C   0  0  0  0  0  0  0  0  0  0  0  0
  -13.6663    3.3401   -4.0107 C   0  0  0  0  0  0  0  0  0  0  0  0
  -13.7695    5.8299   -3.8306 C   0  0  0  0  0  0  0  0  0  0  0  0
  -11.5575    4.6308   -3.6703 C   0  0  0  0  0  0  0  0  0  0  0  0
  -12.6549    5.5471   -0.9657 C   0  0  0  0  0  0  0  0  0  0  0  0
  -12.7740    5.5295    0.4268 C   0  0  0  0  0  0  0  0  0  0  0  0
  -10.0231    4.6697    4.6929 C   0  0  0  0  0  0  0  0  0  0  0  0
   -8.8534    3.9161    4.8055 C   0  0  0  0  0  0  0  0  0  0  0  0
  1  3  4  0
  1 14  4  0
  1  2  1  0
  3  4  4  0
  4  5  4  0
  5  6  4  0
  5 22  1  0
  6  7  1  0
  6 14  4  0
  7  8  1  0
  8  9  4  0
  8 12  4  0
  9 10  4  0
 10 11  4  0
 11 12  4  0
 12 13  1  0
 13 14  1  0
 13 15  1  6
 15 16  4  0
 15 20  4  0
 16 17  4  0
 17 18  4  0
 17 21  1  0
 18 19  4  0
 19 20  4  0
 23 24  1  0
 24 25  2  0
 24 26  1  0
 26 27  1  0
 27 28  1  0
 28 29  1  0
 23 30  4  0
 30 31  4  0
 31 32  4  0
 32 33  4  0
 33 34  4  0
 34 35  1  0
 35 36  1  0
 36 37  2  0
 36 38  2  0
 36 39  1  0
 39 40  4  0
 40 41  4  0
 41 42  4  0
 42 43  1  0
 43 44  1  0
 43 45  1  0
 43 46  1  0
 42 47  4  0
 47 48  4  0
 34 49  4  0
 49 50  4  0
 50 31  4  0
 48 39  4  0
  2 23  4  0
  2 50  4  0
M  END
$$$$

     RDKit          3D

 40 45  0  0  0  0  0  0  0  0999 V2000
   -7.6410    4.9930    6.8080 C   0  0  0  0  0  0  0  0  0  1  0  0
   -7.7310    4.0530    5.7140 C   0  0  0  0  0  0  0  0  0  2  0  0
   -6.4520    5.6300    6.8680 N   0  0  0  0  0  0  0  0  0  0  0  0
   -6.2260    6.5240    7.8670 N   0  0  0  0  0  0  0  0  0  0  0  0
   -7.1930    6.7500    8.7820 C   0  0  0  0  0  0  0  0  0  0  0  0
   -8.4240    6.1170    8.7580 C   0  0  0  0  0  0  0  0  0  0  0  0
   -9.3950    6.3570    9.7450 N   0  0  0  0  0  0  0  0  0  0  0  0
  -10.5620    5.6840    9.7600 C   0  0  0  0  0  0  0  0  0  0  0  0
  -11.5770    5.6820   10.5960 N   0  0  0  0  0  0  0  0  0  0  0  0
  -12.4690    4.7490   10.1080 N   0  0  0  0  0  0  0  0  0  0  0  0
  -12.0160    4.1880    8.9920 N   0  0  0  0  0  0  0  0  0  0  0  0
  -10.8400    4.7900    8.7610 N   0  0  0  0  0  0  0  0  0  0  0  0
   -9.9950    4.4790    7.6090 C   0  0  0  0  0  0  0  0  0  0  0  0
   -8.6630    5.2070    7.7200 C   0  0  0  0  0  0  0  0  0  0  0  0
  -10.7490    4.8610    6.3730 C   0  0  0  0  0  0  0  0  0  0  0  0
  -11.0350    6.2020    6.1170 C   0  0  0  0  0  0  0  0  0  0  0  0
  -11.7370    6.5580    4.9650 C   0  0  0  0  0  0  0  0  0  0  0  0
  -12.1550    5.5730    4.0710 C   0  0  0  0  0  0  0  0  0  0  0  0
  -11.8700    4.2310    4.3270 C   0  0  0  0  0  0  0  0  0  0  0  0
  -11.1660    3.8760    5.4790 C   0  0  0  0  0  0  0  0  0  0  0  0
  -12.0160    7.8660    4.7150 O   0  0  0  0  0  0  0  0  0  0  0  0
   -6.8990    7.6510    9.7710 O   0  0  0  0  0  0  0  0  0  0  0  0
   -6.7933    3.1915    5.2691 N   0  0  0  0  0  0  0  0  0  0  0  0
   -7.2861    2.4411    4.2914 N   0  0  0  0  0  0  0  0  0  0  0  0
   -8.5704    2.8086    4.1247 C   0  0  0  0  0  0  0  0  0  0  0  0
   -9.6526    2.1097    2.8790 S   0  0  0  0  0  0  0  0  0  0  0  0
  -10.2624    0.7950    3.9847 C   0  0  0  0  0  0  0  0  0  0  0  0
  -11.3260   -0.0011    3.2889 C   0  0  0  0  0  0  0  0  0  0  0  0
  -11.1160   -1.2189    3.0431 O   0  0  0  0  0  0  0  0  0  0  0  0
  -12.5642    0.5918    2.8718 N   0  0  0  0  0  0  0  0  0  0  0  0
  -12.9570    1.8803    3.2775 N   0  0  0  0  0  0  0  0  0  0  0  0
  -14.0606    2.5564    2.6633 C   0  0  0  0  0  0  0  0  0  0  0  0
  -14.7673    3.3329    3.3595 O   0  0  0  0  0  0  0  0  0  0  0  0
  -14.3715    2.3933    1.2319 C   0  0  0  0  0  0  0  0  0  0  0  0
  -13.5074    1.9419    0.2386 C   0  0  0  0  0  0  0  0  0  0  0  0
  -14.0818    1.9458   -1.0383 C   0  0  0  0  0  0  0  0  0  0  0  0
  -15.3901    2.4097   -1.0612 C   0  0  0  0  0  0  0  0  0  0  0  0
  -15.8303    2.8185    0.5089 S   0  0  0  0  0  0  0  0  0  0  0  0
   -8.9116    3.7841    4.9831 N   0  0  0  0  0  0  0  0  0  0  0  0
  -10.1063    4.5231    4.9912 N   0  0  0  0  0  0  0  0  0  0  0  0
  1  3  4  0
  1 14  4  0
  1  2  1  0
  3  4  4  0
  4  5  4  0
  5  6  4  0
  5 22  1  0
  6  7  1  0
  6 14  4  0
  7  8  1  0
  8  9  4  0
  8 12  4  0
  9 10  4  0
 10 11  4  0
 11 12  4  0
 12 13  1  0
 13 14  1  0
 13 15  1  6
 15 16  4  0
 15 20  4  0
 16 17  4  0
 17 18  4  0
 17 21  1  0
 18 19  4  0
 19 20  4  0
 23 24  4  0
 24 25  4  0
 25 26  1  0
 26 27  1  0
 27 28  1  0
 28 29  2  0
 28 30  1  0
 30 31  1  0
 31 32  1  0
 32 33  2  0
 32 34  1  0
 34 35  4  0
 35 36  4  0
 36 37  4  0
 37 38  4  0
 25 39  4  0
 39 40  1  0
 38 34  4  0
  2 23  4  0
  2 39  4  0
M  END
$$$$

     RDKit          3D

 40 45  0  0  0  0  0  0  0  0999 V2000
   -7.6410    4.9930    6.8080 C   0  0  0  0  0  0  0  0  0  1  0  0
   -7.7310    4.0530    5.7140 C   0  0  0  0  0  0  0  0  0  2  0  0
   -6.4520    5.6300    6.8680 N   0  0  0  0  0  0  0  0  0  0  0  0
   -6.2260    6.5240    7.8670 N   0  0  0  0  0  0  0  0  0  0  0  0
   -7.1930    6.7500    8.7820 C   0  0  0  0  0  0  0  0  0  0  0  0
   -8.4240    6.1170    8.7580 C   0  0  0  0  0  0  0  0  0  0  0  0
   -9.3950    6.3570    9.7450 N   0  0  0  0  0  0  0  0  0  0  0  0
  -10.5620    5.6840    9.7600 C   0  0  0  0  0  0  0  0  0  0  0  0
  -11.5770    5.6820   10.5960 N   0  0  0  0  0  0  0  0  0  0  0  0
  -12.4690    4.7490   10.1080 N   0  0  0  0  0  0  0  0  0  0  0  0
  -12.0160    4.1880    8.9920 N   0  0  0  0  0  0  0  0  0  0  0  0
  -10.8400    4.7900    8.7610 N   0  0  0  0  0  0  0  0  0  0  0  0
   -9.9950    4.4790    7.6090 C   0  0  0  0  0  0  0  0  0  0  0  0
   -8.6630    5.2070    7.7200 C   0  0  0  0  0  0  0  0  0  0  0  0
  -10.7490    4.8610    6.3730 C   0  0  0  0  0  0  0  0  0  0  0  0
  -11.0350    6.2020    6.1170 C   0  0  0  0  0  0  0  0  0  0  0  0
  -11.7370    6.5580    4.9650 C   0  0  0  0  0  0  0  0  0  0  0  0
  -12.1550    5.5730    4.0710 C   0  0  0  0  0  0  0  0  0  0  0  0
  -11.8700    4.2310    4.3270 C   0  0  0  0  0  0  0  0  0  0  0  0
  -11.1660    3.8760    5.4790 C   0  0  0  0  0  0  0  0  0  0  0  0
  -12.0160    7.8660    4.7150 O   0  0  0  0  0  0  0  0  0  0  0  0
   -6.8990    7.6510    9.7710 O   0  0  0  0  0  0  0  0  0  0  0  0
   -6.7930    3.1928    5.2667 N   0  0  0  0  0  0  0  0  0  0  0  0
   -7.2877    2.4409    4.2910 N   0  0  0  0  0  0  0  0  0  0  0  0
   -8.5735    2.8055    4.1286 C   0  0  0  0  0  0  0  0  0  0  0  0
   -9.6599    2.0989    2.8882 S   0  0  0  0  0  0  0  0  0  0  0  0
  -10.2166    0.7176    3.9475 C   0  0  0  0  0  0  0  0  0  0  0  0
  -11.0816    1.2094    5.0726 C   0  0  0  0  0  0  0  0  0  0  0  0
  -10.6347    1.1555    6.2500 O   0  0  0  0  0  0  0  0  0  0  0  0
  -12.4005    1.7321    4.8518 N   0  0  0  0  0  0  0  0  0  0  0  0
  -13.0219    1.7272    3.5885 N   0  0  0  0  0  0  0  0  0  0  0  0
  -14.3935    2.1084    3.4233 C   0  0  0  0  0  0  0  0  0  0  0  0
  -14.7338    2.7243    2.3779 O   0  0  0  0  0  0  0  0  0  0  0  0
  -15.4239    1.7587    4.4202 C   0  0  0  0  0  0  0  0  0  0  0  0
  -16.7178    2.2696    4.4578 C   0  0  0  0  0  0  0  0  0  0  0  0
  -17.5071    1.7132    5.4721 C   0  0  0  0  0  0  0  0  0  0  0  0
  -16.8483    0.7529    6.2286 C   0  0  0  0  0  0  0  0  0  0  0  0
  -15.2835    0.5981    5.6331 S   0  0  0  0  0  0  0  0  0  0  0  0
   -8.9136    3.7818    4.9862 N   0  0  0  0  0  0  0  0  0  0  0  0
  -10.1044    4.5283    4.9890 N   0  0  0  0  0  0  0  0  0  0  0  0
  1  3  4  0
  1 14  4  0
  1  2  1  0
  3  4  4  0
  4  5  4  0
  5  6  4  0
  5 22  1  0
  6  7  1  0
  6 14  4  0
  7  8  1  0
  8  9  4  0
  8 12  4  0
  9 10  4  0
 10 11  4  0
 11 12  4  0
 12 13  1  0
 13 14  1  0
 13 15  1  6
 15 16  4  0
 15 20  4  0
 16 17  4  0
 17 18  4  0
 17 21  1  0
 18 19  4  0
 19 20  4  0
 23 24  4  0
 24 25  4  0
 25 26  1  0
 26 27  1  0
 27 28  1  0
 28 29  2  0
 28 30  1  0
 30 31  1  0
 31 32  1  0
 32 33  2  0
 32 34  1  0
 34 35  4  0
 35 36  4  0
 36 37  4  0
 37 38  4  0
 25 39  4  0
 39 40  1  0
 38 34  4  0
  2 23  4  0
  2 39  4  0
M  END
$$$$

     RDKit          3D

 40 45  0  0  0  0  0  0  0  0999 V2000
   -7.6410    4.9930    6.8080 C   0  0  0  0  0  0  0  0  0  1  0  0
   -7.7310    4.0530    5.7140 C   0  0  0  0  0  0  0  0  0  2  0  0
   -6.4520    5.6300    6.8680 N   0  0  0  0  0  0  0  0  0  0  0  0
   -6.2260    6.5240    7.8670 N   0  0  0  0  0  0  0  0  0  0  0  0
   -7.1930    6.7500    8.7820 C   0  0  0  0  0  0  0  0  0  0  0  0
   -8.4240    6.1170    8.7580 C   0  0  0  0  0  0  0  0  0  0  0  0
   -9.3950    6.3570    9.7450 N   0  0  0  0  0  0  0  0  0  0  0  0
  -10.5620    5.6840    9.7600 C   0  0  0  0  0  0  0  0  0  0  0  0
  -11.5770    5.6820   10.5960 N   0  0  0  0  0  0  0  0  0  0  0  0
  -12.4690    4.7490   10.1080 N   0  0  0  0  0  0  0  0  0  0  0  0
  -12.0160    4.1880    8.9920 N   0  0  0  0  0  0  0  0  0  0  0  0
  -10.8400    4.7900    8.7610 N   0  0  0  0  0  0  0  0  0  0  0  0
   -9.9950    4.4790    7.6090 C   0  0  0  0  0  0  0  0  0  0  0  0
   -8.6630    5.2070    7.7200 C   0  0  0  0  0  0  0  0  0  0  0  0
  -10.7490    4.8610    6.3730 C   0  0  0  0  0  0  0  0  0  0  0  0
  -11.0350    6.2020    6.1170 C   0  0  0  0  0  0  0  0  0  0  0  0
  -11.7370    6.5580    4.9650 C   0  0  0  0  0  0  0  0  0  0  0  0
  -12.1550    5.5730    4.0710 C   0  0  0  0  0  0  0  0  0  0  0  0
  -11.8700    4.2310    4.3270 C   0  0  0  0  0  0  0  0  0  0  0  0
  -11.1660    3.8760    5.4790 C   0  0  0  0  0  0  0  0  0  0  0  0
  -12.0160    7.8660    4.7150 O   0  0  0  0  0  0  0  0  0  0  0  0
   -6.8990    7.6510    9.7710 O   0  0  0  0  0  0  0  0  0  0  0  0
   -6.7926    3.1927    5.2682 N   0  0  0  0  0  0  0  0  0  0  0  0
   -7.2861    2.4396    4.2929 N   0  0  0  0  0  0  0  0  0  0  0  0
   -8.5716    2.8041    4.1284 C   0  0  0  0  0  0  0  0  0  0  0  0
   -9.6536    2.1026    2.8838 S   0  0  0  0  0  0  0  0  0  0  0  0
  -10.2933    0.8169    4.0061 C   0  0  0  0  0  0  0  0  0  0  0  0
  -11.2497   -0.0721    3.2693 C   0  0  0  0  0  0  0  0  0  0  0  0
  -12.4798    0.0089    3.5303 O   0  0  0  0  0  0  0  0  0  0  0  0
  -10.8071   -1.0201    2.2862 N   0  0  0  0  0  0  0  0  0  0  0  0
   -9.4469   -1.2429    2.0006 N   0  0  0  0  0  0  0  0  0  0  0  0
   -9.0251   -2.2998    1.1299 C   0  0  0  0  0  0  0  0  0  0  0  0
   -8.0204   -2.1184    0.3913 O   0  0  0  0  0  0  0  0  0  0  0  0
   -9.7070   -3.6078    1.1083 C   0  0  0  0  0  0  0  0  0  0  0  0
   -9.5438   -4.5875    0.1346 C   0  0  0  0  0  0  0  0  0  0  0  0
  -10.2631   -5.7596    0.3993 C   0  0  0  0  0  0  0  0  0  0  0  0
  -10.9840   -5.7170    1.5850 C   0  0  0  0  0  0  0  0  0  0  0  0
  -10.7226   -4.2206    2.3045 S   0  0  0  0  0  0  0  0  0  0  0  0
   -8.9128    3.7801    4.9860 N   0  0  0  0  0  0  0  0  0  0  0  0
  -10.1126    4.5105    5.0014 N   0  0  0  0  0  0  0  0  0  0  0  0
  1  3  4  0
  1 14  4  0
  1  2  1  0
  3  4  4  0
  4  5  4  0
  5  6  4  0
  5 22  1  0
  6  7  1  0
  6 14  4  0
  7  8  1  0
  8  9  4  0
  8 12  4  0
  9 10  4  0
 10 11  4  0
 11 12  4  0
 12 13  1  0
 13 14  1  0
 13 15  1  6
 15 16  4  0
 15 20  4  0
 16 17  4  0
 17 18  4  0
 17 21  1  0
 18 19  4  0
 19 20  4  0
 23 24  4  0
 24 25  4  0
 25 26  1  0
 26 27  1  0
 27 28  1  0
 28 29  2  0
 28 30  1  0
 30 31  1  0
 31 32  1  0
 32 33  2  0
 32 34  1  0
 34 35  4  0
 35 36  4  0
 36 37  4  0
 37 38  4  0
 25 39  4  0
 39 40  1  0
 38 34  4  0
  2 23  4  0
  2 39  4  0
M  END
$$$$

     RDKit          3D

 40 45  0  0  0  0  0  0  0  0999 V2000
   -7.6410    4.9930    6.8080 C   0  0  0  0  0  0  0  0  0  1  0  0
   -7.7310    4.0530    5.7140 C   0  0  0  0  0  0  0  0  0  2  0  0
   -6.4520    5.6300    6.8680 N   0  0  0  0  0  0  0  0  0  0  0  0
   -6.2260    6.5240    7.8670 N   0  0  0  0  0  0  0  0  0  0  0  0
   -7.1930    6.7500    8.7820 C   0  0  0  0  0  0  0  0  0  0  0  0
   -8.4240    6.1170    8.7580 C   0  0  0  0  0  0  0  0  0  0  0  0
   -9.3950    6.3570    9.7450 N   0  0  0  0  0  0  0  0  0  0  0  0
  -10.5620    5.6840    9.7600 C   0  0  0  0  0  0  0  0  0  0  0  0
  -11.5770    5.6820   10.5960 N   0  0  0  0  0  0  0  0  0  0  0  0
  -12.4690    4.7490   10.1080 N   0  0  0  0  0  0  0  0  0  0  0  0
  -12.0160    4.1880    8.9920 N   0  0  0  0  0  0  0  0  0  0  0  0
  -10.8400    4.7900    8.7610 N   0  0  0  0  0  0  0  0  0  0  0  0
   -9.9950    4.4790    7.6090 C   0  0  0  0  0  0  0  0  0  0  0  0
   -8.6630    5.2070    7.7200 C   0  0  0  0  0  0  0  0  0  0  0  0
  -10.7490    4.8610    6.3730 C   0  0  0  0  0  0  0  0  0  0  0  0
  -11.0350    6.2020    6.1170 C   0  0  0  0  0  0  0  0  0  0  0  0
  -11.7370    6.5580    4.9650 C   0  0  0  0  0  0  0  0  0  0  0  0
  -12.1550    5.5730    4.0710 C   0  0  0  0  0  0  0  0  0  0  0  0
  -11.8700    4.2310    4.3270 C   0  0  0  0  0  0  0  0  0  0  0  0
  -11.1660    3.8760    5.4790 C   0  0  0  0  0  0  0  0  0  0  0  0
  -12.0160    7.8660    4.7150 O   0  0  0  0  0  0  0  0  0  0  0  0
   -6.8990    7.6510    9.7710 O   0  0  0  0  0  0  0  0  0  0  0  0
   -6.7891    3.2031    5.2579 N   0  0  0  0  0  0  0  0  0  0  0  0
   -7.2808    2.4565    4.2772 N   0  0  0  0  0  0  0  0  0  0  0  0
   -8.5706    2.8105    4.1231 C   0  0  0  0  0  0  0  0  0  0  0  0
   -9.6460    2.1258    2.8594 S   0  0  0  0  0  0  0  0  0  0  0  0
  -10.0712    0.6154    3.7969 C   0  0  0  0  0  0  0  0  0  0  0  0
  -11.2360    0.8633    4.7155 C   0  0  0  0  0  0  0  0  0  0  0  0
  -11.1250    1.7238    5.6285 O   0  0  0  0  0  0  0  0  0  0  0  0
  -12.4789    0.1618    4.5718 N   0  0  0  0  0  0  0  0  0  0  0  0
  -12.5531   -1.1366    4.0340 N   0  0  0  0  0  0  0  0  0  0  0  0
  -13.8197   -1.7412    3.7335 C   0  0  0  0  0  0  0  0  0  0  0  0
  -14.8807   -1.0788    3.8922 O   0  0  0  0  0  0  0  0  0  0  0  0
  -13.9129   -3.1254    3.2291 C   0  0  0  0  0  0  0  0  0  0  0  0
  -12.8654   -4.0151    2.9982 C   0  0  0  0  0  0  0  0  0  0  0  0
  -13.2904   -5.2590    2.5145 C   0  0  0  0  0  0  0  0  0  0  0  0
  -14.6661   -5.3607    2.3615 C   0  0  0  0  0  0  0  0  0  0  0  0
  -15.3534   -3.9005    2.8294 S   0  0  0  0  0  0  0  0  0  0  0  0
   -8.9144    3.7795    4.9884 N   0  0  0  0  0  0  0  0  0  0  0  0
  -10.0979    4.5367    4.9803 N   0  0  0  0  0  0  0  0  0  0  0  0
  1  3  4  0
  1 14  4  0
  1  2  1  0
  3  4  4  0
  4  5  4  0
  5  6  4  0
  5 22  1  0
  6  7  1  0
  6 14  4  0
  7  8  1  0
  8  9  4  0
  8 12  4  0
  9 10  4  0
 10 11  4  0
 11 12  4  0
 12 13  1  0
 13 14  1  0
 13 15  1  6
 15 16  4  0
 15 20  4  0
 16 17  4  0
 17 18  4  0
 17 21  1  0
 18 19  4  0
 19 20  4  0
 23 24  4  0
 24 25  4  0
 25 26  1  0
 26 27  1  0
 27 28  1  0
 28 29  2  0
 28 30  1  0
 30 31  1  0
 31 32  1  0
 32 33  2  0
 32 34  1  0
 34 35  4  0
 35 36  4  0
 36 37  4  0
 37 38  4  0
 25 39  4  0
 39 40  1  0
 38 34  4  0
  2 23  4  0
  2 39  4  0
M  END
$$$$

     RDKit          3D

 32 36  0  0  0  0  0  0  0  0999 V2000
   -7.6410    4.9930    6.8080 C   0  0  0  0  0  0  0  0  0  1  0  0
   -7.7310    4.0530    5.7140 C   0  0  0  0  0  0  0  0  0  2  0  0
   -6.4520    5.6300    6.8680 N   0  0  0  0  0  0  0  0  0  0  0  0
   -6.2260    6.5240    7.8670 N   0  0  0  0  0  0  0  0  0  0  0  0
   -7.1930    6.7500    8.7820 C   0  0  0  0  0  0  0  0  0  0  0  0
   -8.4240    6.1170    8.7580 C   0  0  0  0  0  0  0  0  0  0  0  0
   -9.3950    6.3570    9.7450 N   0  0  0  0  0  0  0  0  0  0  0  0
  -10.5620    5.6840    9.7600 C   0  0  0  0  0  0  0  0  0  0  0  0
  -11.5770    5.6820   10.5960 N   0  0  0  0  0  0  0  0  0  0  0  0
  -12.4690    4.7490   10.1080 N   0  0  0  0  0  0  0  0  0  0  0  0
  -12.0160    4.1880    8.9920 N   0  0  0  0  0  0  0  0  0  0  0  0
  -10.8400    4.7900    8.7610 N   0  0  0  0  0  0  0  0  0  0  0  0
   -9.9950    4.4790    7.6090 C   0  0  0  0  0  0  0  0  0  0  0  0
   -8.6630    5.2070    7.7200 C   0  0  0  0  0  0  0  0  0  0  0  0
  -10.7490    4.8610    6.3730 C   0  0  0  0  0  0  0  0  0  0  0  0
  -11.0350    6.2020    6.1170 C   0  0  0  0  0  0  0  0  0  0  0  0
  -11.7370    6.5580    4.9650 C   0  0  0  0  0  0  0  0  0  0  0  0
  -12.1550    5.5730    4.0710 C   0  0  0  0  0  0  0  0  0  0  0  0
  -11.8700    4.2310    4.3270 C   0  0  0  0  0  0  0  0  0  0  0  0
  -11.1660    3.8760    5.4790 C   0  0  0  0  0  0  0  0  0  0  0  0
  -12.0160    7.8660    4.7150 O   0  0  0  0  0  0  0  0  0  0  0  0
   -6.8990    7.6510    9.7710 O   0  0  0  0  0  0  0  0  0  0  0  0
   -6.9118    2.9061    5.6071 C   0  0  0  0  0  0  0  0  0  0  0  0
   -7.0267    1.9774    4.5576 C   0  0  0  0  0  0  0  0  0  0  0  0
   -6.1282    0.7671    4.5099 C   0  0  0  0  0  0  0  0  0  0  0  0
   -5.9632    0.3295    3.2071 F   0  0  0  0  0  0  0  0  0  0  0  0
   -4.8792    1.0667    5.0263 F   0  0  0  0  0  0  0  0  0  0  0  0
   -6.6932   -0.2486    5.2581 F   0  0  0  0  0  0  0  0  0  0  0  0
   -8.0489    2.1441    3.6077 C   0  0  0  0  0  0  0  0  0  0  0  0
   -8.9055    3.2451    3.6768 C   0  0  0  0  0  0  0  0  0  0  0  0
   -8.7699    4.1799    4.7055 C   0  0  0  0  0  0  0  0  0  0  0  0
   -9.5937    5.2583    4.7355 F   0  0  0  0  0  0  0  0  0  0  0  0
  1  3  4  0
  1 14  4  0
  1  2  1  0
  3  4  4  0
  4  5  4  0
  5  6  4  0
  5 22  1  0
  6  7  1  0
  6 14  4  0
  7  8  1  0
  8  9  4  0
  8 12  4  0
  9 10  4  0
 10 11  4  0
 11 12  4  0
 12 13  1  0
 13 14  1  0
 13 15  1  6
 15 16  4  0
 15 20  4  0
 16 17  4  0
 17 18  4  0
 17 21  1  0
 18 19  4  0
 19 20  4  0
 23 24  4  0
 24 25  1  0
 25 26  1  0
 25 27  1  0
 25 28  1  0
 24 29  4  0
 29 30  4  0
 30 31  4  0
 31 32  1  0
  2 23  4  0
  2 31  4  0
M  END
$$$$

     RDKit          3D

 30 35  0  0  0  0  0  0  0  0999 V2000
   -7.6410    4.9930    6.8080 C   0  0  0  0  0  0  0  0  0  1  0  0
   -7.7310    4.0530    5.7140 C   0  0  0  0  0  0  0  0  0  2  0  0
   -6.4520    5.6300    6.8680 N   0  0  0  0  0  0  0  0  0  0  0  0
   -6.2260    6.5240    7.8670 N   0  0  0  0  0  0  0  0  0  0  0  0
   -7.1930    6.7500    8.7820 C   0  0  0  0  0  0  0  0  0  0  0  0
   -8.4240    6.1170    8.7580 C   0  0  0  0  0  0  0  0  0  0  0  0
   -9.3950    6.3570    9.7450 N   0  0  0  0  0  0  0  0  0  0  0  0
  -10.5620    5.6840    9.7600 C   0  0  0  0  0  0  0  0  0  0  0  0
  -11.5770    5.6820   10.5960 N   0  0  0  0  0  0  0  0  0  0  0  0
  -12.4690    4.7490   10.1080 N   0  0  0  0  0  0  0  0  0  0  0  0
  -12.0160    4.1880    8.9920 N   0  0  0  0  0  0  0  0  0  0  0  0
  -10.8400    4.7900    8.7610 N   0  0  0  0  0  0  0  0  0  0  0  0
   -9.9950    4.4790    7.6090 C   0  0  0  0  0  0  0  0  0  0  0  0
   -8.6630    5.2070    7.7200 C   0  0  0  0  0  0  0  0  0  0  0  0
  -10.7490    4.8610    6.3730 C   0  0  0  0  0  0  0  0  0  0  0  0
  -11.0350    6.2020    6.1170 C   0  0  0  0  0  0  0  0  0  0  0  0
  -11.7370    6.5580    4.9650 C   0  0  0  0  0  0  0  0  0  0  0  0
  -12.1550    5.5730    4.0710 C   0  0  0  0  0  0  0  0  0  0  0  0
  -11.8700    4.2310    4.3270 C   0  0  0  0  0  0  0  0  0  0  0  0
  -11.1660    3.8760    5.4790 C   0  0  0  0  0  0  0  0  0  0  0  0
  -12.0160    7.8660    4.7150 O   0  0  0  0  0  0  0  0  0  0  0  0
   -6.8990    7.6510    9.7710 O   0  0  0  0  0  0  0  0  0  0  0  0
   -6.9298    2.9781    5.3247 C   0  0  0  0  0  0  0  0  0  0  0  0
   -7.4848    2.2189    4.3502 N   0  0  0  0  0  0  0  0  0  0  0  0
   -8.6877    2.7939    4.1479 C   0  0  0  0  0  0  0  0  0  0  0  0
   -9.6460    2.3702    3.2291 C   0  0  0  0  0  0  0  0  0  0  0  0
  -10.8463    3.0944    3.1566 C   0  0  0  0  0  0  0  0  0  0  0  0
  -11.0549    4.2096    3.9898 C   0  0  0  0  0  0  0  0  0  0  0  0
  -10.0556    4.5915    4.8964 C   0  0  0  0  0  0  0  0  0  0  0  0
   -8.9112    3.8575    4.9400 N   0  0  0  0  0  0  0  0  0  0  0  0
  1  3  4  0
  1 14  4  0
  1  2  1  0
  3  4  4  0
  4  5  4  0
  5  6  4  0
  5 22  1  0
  6  7  1  0
  6 14  4  0
  7  8  1  0
  8  9  4  0
  8 12  4  0
  9 10  4  0
 10 11  4  0
 11 12  4  0
 12 13  1  0
 13 14  1  0
 13 15  1  6
 15 16  4  0
 15 20  4  0
 16 17  4  0
 17 18  4  0
 17 21  1  0
 18 19  4  0
 19 20  4  0
 23 24  4  0
 24 25  4  0
 25 26  4  0
 26 27  4  0
 27 28  4  0
 28 29  4  0
 29 30  4  0
 30 25  4  0
  2 23  4  0
  2 30  4  0
M  END
$$$$

     RDKit          3D

 42 48  0  0  0  0  0  0  0  0999 V2000
   -7.6410    4.9930    6.8080 C   0  0  0  0  0  0  0  0  0  1  0  0
   -7.7310    4.0530    5.7140 C   0  0  0  0  0  0  0  0  0  2  0  0
   -6.4520    5.6300    6.8680 N   0  0  0  0  0  0  0  0  0  0  0  0
   -6.2260    6.5240    7.8670 N   0  0  0  0  0  0  0  0  0  0  0  0
   -7.1930    6.7500    8.7820 C   0  0  0  0  0  0  0  0  0  0  0  0
   -8.4240    6.1170    8.7580 C   0  0  0  0  0  0  0  0  0  0  0  0
   -9.3950    6.3570    9.7450 N   0  0  0  0  0  0  0  0  0  0  0  0
  -10.5620    5.6840    9.7600 C   0  0  0  0  0  0  0  0  0  0  0  0
  -11.5770    5.6820   10.5960 N   0  0  0  0  0  0  0  0  0  0  0  0
  -12.4690    4.7490   10.1080 N   0  0  0  0  0  0  0  0  0  0  0  0
  -12.0160    4.1880    8.9920 N   0  0  0  0  0  0  0  0  0  0  0  0
  -10.8400    4.7900    8.7610 N   0  0  0  0  0  0  0  0  0  0  0  0
   -9.9950    4.4790    7.6090 C   0  0  0  0  0  0  0  0  0  0  0  0
   -8.6630    5.2070    7.7200 C   0  0  0  0  0  0  0  0  0  0  0  0
  -10.7490    4.8610    6.3730 C   0  0  0  0  0  0  0  0  0  0  0  0
  -11.0350    6.2020    6.1170 C   0  0  0  0  0  0  0  0  0  0  0  0
  -11.7370    6.5580    4.9650 C   0  0  0  0  0  0  0  0  0  0  0  0
  -12.1550    5.5730    4.0710 C   0  0  0  0  0  0  0  0  0  0  0  0
  -11.8700    4.2310    4.3270 C   0  0  0  0  0  0  0  0  0  0  0  0
  -11.1660    3.8760    5.4790 C   0  0  0  0  0  0  0  0  0  0  0  0
  -12.0160    7.8660    4.7150 O   0  0  0  0  0  0  0  0  0  0  0  0
   -6.8990    7.6510    9.7710 O   0  0  0  0  0  0  0  0  0  0  0  0
   -6.8860    2.9901    5.6061 N   0  0  0  0  0  0  0  0  0  0  0  0
   -6.9657    2.0454    4.6712 N   0  0  0  0  0  0  0  0  0  0  0  0
   -7.9496    2.0385    3.7375 C   0  0  0  0  0  0  0  0  0  0  0  0
   -7.9555    0.9948    2.7535 N   0  0  0  0  0  0  0  0  0  0  0  0
   -7.7776    1.2248    1.3431 C   0  0  0  0  0  0  0  0  0  0  0  0
   -7.3857    2.4813    0.8427 C   0  0  0  0  0  0  0  0  0  0  0  0
   -7.2213    2.6744   -0.5318 C   0  0  0  0  0  0  0  0  0  0  0  0
   -7.4331    1.6159   -1.4240 C   0  0  0  0  0  0  0  0  0  0  0  0
   -7.2415    1.8688   -3.1555 S   0  0  0  0  0  0  0  0  0  0  0  0
   -8.7294    2.4459   -3.8195 N   0  0  0  0  0  0  0  0  0  0  0  0
   -6.8643    0.5751   -3.8214 O   0  0  0  0  0  0  0  0  0  0  0  0
   -6.1521    2.8744   -3.4043 O   0  0  0  0  0  0  0  0  0  0  0  0
   -7.8194    0.3632   -0.9309 C   0  0  0  0  0  0  0  0  0  0  0  0
   -7.9846    0.1682    0.4433 C   0  0  0  0  0  0  0  0  0  0  0  0
   -8.9347    3.0470    3.7673 C   0  0  0  0  0  0  0  0  0  0  0  0
  -10.0130    3.0579    2.8600 C   0  0  0  0  0  0  0  0  0  0  0  0
  -10.9468    4.0941    2.8843 C   0  0  0  0  0  0  0  0  0  0  0  0
  -10.8219    5.1284    3.8097 C   0  0  0  0  0  0  0  0  0  0  0  0
   -9.7764    5.1214    4.7344 C   0  0  0  0  0  0  0  0  0  0  0  0
   -8.8373    4.0683    4.7460 C   0  0  0  0  0  0  0  0  0  0  0  0
  1  3  4  0
  1 14  4  0
  1  2  1  0
  3  4  4  0
  4  5  4  0
  5  6  4  0
  5 22  1  0
  6  7  1  0
  6 14  4  0
  7  8  1  0
  8  9  4  0
  8 12  4  0
  9 10  4  0
 10 11  4  0
 11 12  4  0
 12 13  1  0
 13 14  1  0
 13 15  1  6
 15 16  4  0
 15 20  4  0
 16 17  4  0
 17 18  4  0
 17 21  1  0
 18 19  4  0
 19 20  4  0
 23 24  4  0
 24 25  4  0
 25 26  1  0
 26 27  1  0
 27 28  4  0
 28 29  4  0
 29 30  4  0
 30 31  1  0
 31 32  1  0
 31 33  2  0
 31 34  2  0
 30 35  4  0
 35 36  4  0
 25 37  4  0
 37 38  4  0
 38 39  4  0
 39 40  4  0
 40 41  4  0
 41 42  4  0
 36 27  4  0
 42 37  4  0
  2 23  4  0
  2 42  4  0
M  END
$$$$

     RDKit          3D

 39 45  0  0  0  0  0  0  0  0999 V2000
   -7.6410    4.9930    6.8080 C   0  0  0  0  0  0  0  0  0  1  0  0
   -7.7310    4.0530    5.7140 C   0  0  0  0  0  0  0  0  0  2  0  0
   -6.4520    5.6300    6.8680 N   0  0  0  0  0  0  0  0  0  0  0  0
   -6.2260    6.5240    7.8670 N   0  0  0  0  0  0  0  0  0  0  0  0
   -7.1930    6.7500    8.7820 C   0  0  0  0  0  0  0  0  0  0  0  0
   -8.4240    6.1170    8.7580 C   0  0  0  0  0  0  0  0  0  0  0  0
   -9.3950    6.3570    9.7450 N   0  0  0  0  0  0  0  0  0  0  0  0
  -10.5620    5.6840    9.7600 C   0  0  0  0  0  0  0  0  0  0  0  0
  -11.5770    5.6820   10.5960 N   0  0  0  0  0  0  0  0  0  0  0  0
  -12.4690    4.7490   10.1080 N   0  0  0  0  0  0  0  0  0  0  0  0
  -12.0160    4.1880    8.9920 N   0  0  0  0  0  0  0  0  0  0  0  0
  -10.8400    4.7900    8.7610 N   0  0  0  0  0  0  0  0  0  0  0  0
   -9.9950    4.4790    7.6090 C   0  0  0  0  0  0  0  0  0  0  0  0
   -8.6630    5.2070    7.7200 C   0  0  0  0  0  0  0  0  0  0  0  0
  -10.7490    4.8610    6.3730 C   0  0  0  0  0  0  0  0  0  0  0  0
  -11.0350    6.2020    6.1170 C   0  0  0  0  0  0  0  0  0  0  0  0
  -11.7370    6.5580    4.9650 C   0  0  0  0  0  0  0  0  0  0  0  0
  -12.1550    5.5730    4.0710 C   0  0  0  0  0  0  0  0  0  0  0  0
  -11.8700    4.2310    4.3270 C   0  0  0  0  0  0  0  0  0  0  0  0
  -11.1660    3.8760    5.4790 C   0  0  0  0  0  0  0  0  0  0  0  0
  -12.0160    7.8660    4.7150 O   0  0  0  0  0  0  0  0  0  0  0  0
   -6.8990    7.6510    9.7710 O   0  0  0  0  0  0  0  0  0  0  0  0
   -6.8895    2.9472    5.5026 C   0  0  0  0  0  0  0  0  0  0  0  0
   -7.4081    1.9894    4.2102 S   0  0  0  0  0  0  0  0  0  0  0  0
   -8.7600    2.9220    3.8770 C   0  0  0  0  0  0  0  0  0  0  0  0
   -9.6631    2.7184    2.8879 N   0  0  0  0  0  0  0  0  0  0  0  0
  -10.6932    3.6031    2.7413 C   0  0  0  0  0  0  0  0  0  0  0  0
  -11.6902    3.4269    1.6355 C   0  0  0  0  0  0  0  0  0  0  0  0
  -11.1019    3.8798    0.3265 C   0  0  0  0  0  0  0  0  0  0  0  0
  -10.8831    5.2469    0.0865 C   0  0  0  0  0  0  0  0  0  0  0  0
  -10.3283    5.6704   -1.1249 C   0  0  0  0  0  0  0  0  0  0  0  0
   -9.9877    4.7335   -2.1058 C   0  0  0  0  0  0  0  0  0  0  0  0
   -9.2906    5.2663   -3.6247 Cl  0  0  0  0  0  0  0  0  0  0  0  0
  -10.2028    3.3709   -1.8740 C   0  0  0  0  0  0  0  0  0  0  0  0
  -10.7575    2.9441   -0.6635 C   0  0  0  0  0  0  0  0  0  0  0  0
  -10.7824    4.6905    3.5648 N   0  0  0  0  0  0  0  0  0  0  0  0
   -9.8803    4.9121    4.5615 C   0  0  0  0  0  0  0  0  0  0  0  0
   -9.9847    5.9437    5.2748 O   0  0  0  0  0  0  0  0  0  0  0  0
   -8.8392    3.9917    4.7485 C   0  0  0  0  0  0  0  0  0  0  0  0
  1  3  4  0
  1 14  4  0
  1  2  1  0
  3  4  4  0
  4  5  4  0
  5  6  4  0
  5 22  1  0
  6  7  1  0
  6 14  4  0
  7  8  1  0
  8  9  4  0
  8 12  4  0
  9 10  4  0
 10 11  4  0
 11 12  4  0
 12 13  1  0
 13 14  1  0
 13 15  1  6
 15 16  4  0
 15 20  4  0
 16 17  4  0
 17 18  4  0
 17 21  1  0
 18 19  4  0
 19 20  4  0
 23 24  4  0
 24 25  4  0
 25 26  4  0
 26 27  4  0
 27 28  1  0
 28 29  1  0
 29 30  4  0
 30 31  4  0
 31 32  4  0
 32 33  1  0
 32 34  4  0
 34 35  4  0
 27 36  4  0
 36 37  4  0
 37 38  2  0
 37 39  4  0
 39 25  4  0
 35 29  4  0
  2 23  4  0
  2 39  4  0
M  END
$$$$

     RDKit          3D

 39 45  0  0  0  0  0  0  0  0999 V2000
   -7.6410    4.9930    6.8080 C   0  0  0  0  0  0  0  0  0  1  0  0
   -7.7310    4.0530    5.7140 C   0  0  0  0  0  0  0  0  0  2  0  0
   -6.4520    5.6300    6.8680 N   0  0  0  0  0  0  0  0  0  0  0  0
   -6.2260    6.5240    7.8670 N   0  0  0  0  0  0  0  0  0  0  0  0
   -7.1930    6.7500    8.7820 C   0  0  0  0  0  0  0  0  0  0  0  0
   -8.4240    6.1170    8.7580 C   0  0  0  0  0  0  0  0  0  0  0  0
   -9.3950    6.3570    9.7450 N   0  0  0  0  0  0  0  0  0  0  0  0
  -10.5620    5.6840    9.7600 C   0  0  0  0  0  0  0  0  0  0  0  0
  -11.5770    5.6820   10.5960 N   0  0  0  0  0  0  0  0  0  0  0  0
  -12.4690    4.7490   10.1080 N   0  0  0  0  0  0  0  0  0  0  0  0
  -12.0160    4.1880    8.9920 N   0  0  0  0  0  0  0  0  0  0  0  0
  -10.8400    4.7900    8.7610 N   0  0  0  0  0  0  0  0  0  0  0  0
   -9.9950    4.4790    7.6090 C   0  0  0  0  0  0  0  0  0  0  0  0
   -8.6630    5.2070    7.7200 C   0  0  0  0  0  0  0  0  0  0  0  0
  -10.7490    4.8610    6.3730 C   0  0  0  0  0  0  0  0  0  0  0  0
  -11.0350    6.2020    6.1170 C   0  0  0  0  0  0  0  0  0  0  0  0
  -11.7370    6.5580    4.9650 C   0  0  0  0  0  0  0  0  0  0  0  0
  -12.1550    5.5730    4.0710 C   0  0  0  0  0  0  0  0  0  0  0  0
  -11.8700    4.2310    4.3270 C   0  0  0  0  0  0  0  0  0  0  0  0
  -11.1660    3.8760    5.4790 C   0  0  0  0  0  0  0  0  0  0  0  0
  -12.0160    7.8660    4.7150 O   0  0  0  0  0  0  0  0  0  0  0  0
   -6.8990    7.6510    9.7710 O   0  0  0  0  0  0  0  0  0  0  0  0
   -6.8908    2.9459    5.5040 C   0  0  0  0  0  0  0  0  0  0  0  0
   -7.4092    1.9890    4.2108 S   0  0  0  0  0  0  0  0  0  0  0  0
   -8.7592    2.9237    3.8755 C   0  0  0  0  0  0  0  0  0  0  0  0
   -9.6611    2.7215    2.8849 N   0  0  0  0  0  0  0  0  0  0  0  0
  -10.6900    3.6079    2.7370 C   0  0  0  0  0  0  0  0  0  0  0  0
  -11.6867    3.4402    1.6292 C   0  0  0  0  0  0  0  0  0  0  0  0
  -11.2885    4.2720    0.4399 C   0  0  0  0  0  0  0  0  0  0  0  0
  -10.1943    3.8904   -0.3550 C   0  0  0  0  0  0  0  0  0  0  0  0
   -9.8171    4.6662   -1.4553 C   0  0  0  0  0  0  0  0  0  0  0  0
  -10.5284    5.8283   -1.7711 C   0  0  0  0  0  0  0  0  0  0  0  0
  -10.0532    6.8008   -3.1513 Cl  0  0  0  0  0  0  0  0  0  0  0  0
  -11.6187    6.2143   -0.9846 C   0  0  0  0  0  0  0  0  0  0  0  0
  -11.9985    5.4408    0.1166 C   0  0  0  0  0  0  0  0  0  0  0  0
  -10.7780    4.6955    3.5604 N   0  0  0  0  0  0  0  0  0  0  0  0
   -9.8772    4.9153    4.5587 C   0  0  0  0  0  0  0  0  0  0  0  0
   -9.9812    5.9469    5.2722 O   0  0  0  0  0  0  0  0  0  0  0  0
   -8.8378    3.9934    4.7471 C   0  0  0  0  0  0  0  0  0  0  0  0
  1  3  4  0
  1 14  4  0
  1  2  1  0
  3  4  4  0
  4  5  4  0
  5  6  4  0
  5 22  1  0
  6  7  1  0
  6 14  4  0
  7  8  1  0
  8  9  4  0
  8 12  4  0
  9 10  4  0
 10 11  4  0
 11 12  4  0
 12 13  1  0
 13 14  1  0
 13 15  1  6
 15 16  4  0
 15 20  4  0
 16 17  4  0
 17 18  4  0
 17 21  1  0
 18 19  4  0
 19 20  4  0
 23 24  4  0
 24 25  4  0
 25 26  4  0
 26 27  4  0
 27 28  1  0
 28 29  1  0
 29 30  4  0
 30 31  4  0
 31 32  4  0
 32 33  1  0
 32 34  4  0
 34 35  4  0
 27 36  4  0
 36 37  4  0
 37 38  2  0
 37 39  4  0
 39 25  4  0
 35 29  4  0
  2 23  4  0
  2 39  4  0
M  END
$$$$

     RDKit          3D

 45 50  0  0  0  0  0  0  0  0999 V2000
   -7.6410    4.9930    6.8080 C   0  0  0  0  0  0  0  0  0  1  0  0
   -7.7310    4.0530    5.7140 C   0  0  0  0  0  0  0  0  0  2  0  0
   -6.4520    5.6300    6.8680 N   0  0  0  0  0  0  0  0  0  0  0  0
   -6.2260    6.5240    7.8670 N   0  0  0  0  0  0  0  0  0  0  0  0
   -7.1930    6.7500    8.7820 C   0  0  0  0  0  0  0  0  0  0  0  0
   -8.4240    6.1170    8.7580 C   0  0  0  0  0  0  0  0  0  0  0  0
   -9.3950    6.3570    9.7450 N   0  0  0  0  0  0  0  0  0  0  0  0
  -10.5620    5.6840    9.7600 C   0  0  0  0  0  0  0  0  0  0  0  0
  -11.5770    5.6820   10.5960 N   0  0  0  0  0  0  0  0  0  0  0  0
  -12.4690    4.7490   10.1080 N   0  0  0  0  0  0  0  0  0  0  0  0
  -12.0160    4.1880    8.9920 N   0  0  0  0  0  0  0  0  0  0  0  0
  -10.8400    4.7900    8.7610 N   0  0  0  0  0  0  0  0  0  0  0  0
   -9.9950    4.4790    7.6090 C   0  0  0  0  0  0  0  0  0  0  0  0
   -8.6630    5.2070    7.7200 C   0  0  0  0  0  0  0  0  0  0  0  0
  -10.7490    4.8610    6.3730 C   0  0  0  0  0  0  0  0  0  0  0  0
  -11.0350    6.2020    6.1170 C   0  0  0  0  0  0  0  0  0  0  0  0
  -11.7370    6.5580    4.9650 C   0  0  0  0  0  0  0  0  0  0  0  0
  -12.1550    5.5730    4.0710 C   0  0  0  0  0  0  0  0  0  0  0  0
  -11.8700    4.2310    4.3270 C   0  0  0  0  0  0  0  0  0  0  0  0
  -11.1660    3.8760    5.4790 C   0  0  0  0  0  0  0  0  0  0  0  0
  -12.0160    7.8660    4.7150 O   0  0  0  0  0  0  0  0  0  0  0  0
   -6.8990    7.6510    9.7710 O   0  0  0  0  0  0  0  0  0  0  0  0
   -6.7646    3.2546    5.1474 C   0  0  0  0  0  0  0  0  0  0  0  0
   -7.3502    2.4138    4.2230 C   0  0  0  0  0  0  0  0  0  0  0  0
   -6.6165    1.3716    3.4343 C   0  0  0  0  0  0  0  0  0  0  0  0
   -8.6829    2.6392    4.1550 N   0  0  0  0  0  0  0  0  0  0  0  0
   -9.6414    1.8584    3.3613 C   0  0  0  0  0  0  0  0  0  0  0  0
  -10.0736    0.6382    4.1281 C   0  0  0  0  0  0  0  0  0  0  0  0
  -10.5498    0.7817    5.2860 O   0  0  0  0  0  0  0  0  0  0  0  0
   -9.9237   -0.6854    3.5973 N   0  0  0  0  0  0  0  0  0  0  0  0
   -9.9079   -0.9462    2.2148 N   0  0  0  0  0  0  0  0  0  0  0  0
   -9.5380   -2.2389    1.7125 C   0  0  0  0  0  0  0  0  0  0  0  0
   -9.0053   -3.0758    2.4911 O   0  0  0  0  0  0  0  0  0  0  0  0
   -9.7440   -2.5991    0.2886 C   0  0  0  0  0  0  0  0  0  0  0  0
   -8.9578   -3.5977   -0.3036 C   0  0  0  0  0  0  0  0  0  0  0  0
   -9.1442   -3.9520   -1.6416 C   0  0  0  0  0  0  0  0  0  0  0  0
  -10.1300   -3.3246   -2.4341 C   0  0  0  0  0  0  0  0  0  0  0  0
  -10.3092   -3.7506   -3.9062 C   0  0  0  0  0  0  0  0  0  0  0  0
  -10.6814   -5.2479   -3.9655 C   0  0  0  0  0  0  0  0  0  0  0  0
   -8.9899   -3.5191   -4.6750 C   0  0  0  0  0  0  0  0  0  0  0  0
  -11.4218   -2.9595   -4.6359 C   0  0  0  0  0  0  0  0  0  0  0  0
  -10.9269   -2.3296   -1.8222 C   0  0  0  0  0  0  0  0  0  0  0  0
  -10.7367   -1.9762   -0.4831 C   0  0  0  0  0  0  0  0  0  0  0  0
   -8.9585    3.6251    5.0459 C   0  0  0  0  0  0  0  0  0  0  0  0
  -10.3287    4.1930    5.2943 C   0  0  0  0  0  0  0  0  0  0  0  0
  1  3  4  0
  1 14  4  0
  1  2  1  0
  3  4  4  0
  4  5  4  0
  5  6  4  0
  5 22  1  0
  6  7  1  0
  6 14  4  0
  7  8  1  0
  8  9  4  0
  8 12  4  0
  9 10  4  0
 10 11  4  0
 11 12  4  0
 12 13  1  0
 13 14  1  0
 13 15  1  6
 15 16  4  0
 15 20  4  0
 16 17  4  0
 17 18  4  0
 17 21  1  0
 18 19  4  0
 19 20  4  0
 23 24  4  0
 24 25  1  0
 24 26  4  0
 26 27  1  0
 27 28  1  0
 28 29  2  0
 28 30  1  0
 30 31  1  0
 31 32  1  0
 32 33  2  0
 32 34  1  0
 34 35  4  0
 35 36  4  0
 36 37  4  0
 37 38  1  0
 38 39  1  0
 38 40  1  0
 38 41  1  0
 37 42  4  0
 42 43  4  0
 26 44  4  0
 44 45  1  0
 43 34  4  0
  2 23  4  0
  2 44  4  0
M  END
$$$$

     RDKit          3D

 45 50  0  0  0  0  0  0  0  0999 V2000
   -7.6410    4.9930    6.8080 C   0  0  0  0  0  0  0  0  0  1  0  0
   -7.7310    4.0530    5.7140 C   0  0  0  0  0  0  0  0  0  2  0  0
   -6.4520    5.6300    6.8680 N   0  0  0  0  0  0  0  0  0  0  0  0
   -6.2260    6.5240    7.8670 N   0  0  0  0  0  0  0  0  0  0  0  0
   -7.1930    6.7500    8.7820 C   0  0  0  0  0  0  0  0  0  0  0  0
   -8.4240    6.1170    8.7580 C   0  0  0  0  0  0  0  0  0  0  0  0
   -9.3950    6.3570    9.7450 N   0  0  0  0  0  0  0  0  0  0  0  0
  -10.5620    5.6840    9.7600 C   0  0  0  0  0  0  0  0  0  0  0  0
  -11.5770    5.6820   10.5960 N   0  0  0  0  0  0  0  0  0  0  0  0
  -12.4690    4.7490   10.1080 N   0  0  0  0  0  0  0  0  0  0  0  0
  -12.0160    4.1880    8.9920 N   0  0  0  0  0  0  0  0  0  0  0  0
  -10.8400    4.7900    8.7610 N   0  0  0  0  0  0  0  0  0  0  0  0
   -9.9950    4.4790    7.6090 C   0  0  0  0  0  0  0  0  0  0  0  0
   -8.6630    5.2070    7.7200 C   0  0  0  0  0  0  0  0  0  0  0  0
  -10.7490    4.8610    6.3730 C   0  0  0  0  0  0  0  0  0  0  0  0
  -11.0350    6.2020    6.1170 C   0  0  0  0  0  0  0  0  0  0  0  0
  -11.7370    6.5580    4.9650 C   0  0  0  0  0  0  0  0  0  0  0  0
  -12.1550    5.5730    4.0710 C   0  0  0  0  0  0  0  0  0  0  0  0
  -11.8700    4.2310    4.3270 C   0  0  0  0  0  0  0  0  0  0  0  0
  -11.1660    3.8760    5.4790 C   0  0  0  0  0  0  0  0  0  0  0  0
  -12.0160    7.8660    4.7150 O   0  0  0  0  0  0  0  0  0  0  0  0
   -6.8990    7.6510    9.7710 O   0  0  0  0  0  0  0  0  0  0  0  0
   -6.7753    3.2268    5.1687 C   0  0  0  0  0  0  0  0  0  0  0  0
   -7.3603    2.4215    4.2132 C   0  0  0  0  0  0  0  0  0  0  0  0
   -6.6354    1.3672    3.4330 C   0  0  0  0  0  0  0  0  0  0  0  0
   -8.6867    2.6788    4.1237 N   0  0  0  0  0  0  0  0  0  0  0  0
   -9.6483    1.9590    3.2776 C   0  0  0  0  0  0  0  0  0  0  0  0
   -9.9010    0.5860    3.8257 C   0  0  0  0  0  0  0  0  0  0  0  0
   -9.6789   -0.4210    3.1001 O   0  0  0  0  0  0  0  0  0  0  0  0
  -10.4292    0.4256    5.1509 N   0  0  0  0  0  0  0  0  0  0  0  0
  -10.5920   -0.8329    5.7572 N   0  0  0  0  0  0  0  0  0  0  0  0
   -9.5870   -1.8570    5.6892 C   0  0  0  0  0  0  0  0  0  0  0  0
   -8.4108   -1.5519    5.3511 O   0  0  0  0  0  0  0  0  0  0  0  0
   -9.9056   -3.2614    6.0448 C   0  0  0  0  0  0  0  0  0  0  0  0
  -11.2322   -3.7171    6.0709 C   0  0  0  0  0  0  0  0  0  0  0  0
  -11.5241   -5.0412    6.4063 C   0  0  0  0  0  0  0  0  0  0  0  0
  -10.4997   -5.9608    6.7192 C   0  0  0  0  0  0  0  0  0  0  0  0
  -10.8667   -7.4131    7.0909 C   0  0  0  0  0  0  0  0  0  0  0  0
  -11.6408   -8.0652    5.9241 C   0  0  0  0  0  0  0  0  0  0  0  0
  -11.7517   -7.4100    8.3567 C   0  0  0  0  0  0  0  0  0  0  0  0
   -9.6305   -8.2969    7.3834 C   0  0  0  0  0  0  0  0  0  0  0  0
   -9.1656   -5.4937    6.6796 C   0  0  0  0  0  0  0  0  0  0  0  0
   -8.8765   -4.1675    6.3445 C   0  0  0  0  0  0  0  0  0  0  0  0
   -8.9523    3.6694    5.0112 C   0  0  0  0  0  0  0  0  0  0  0  0
  -10.2921    4.3355    5.1664 C   0  0  0  0  0  0  0  0  0  0  0  0
  1  3  4  0
  1 14  4  0
  1  2  1  0
  3  4  4  0
  4  5  4  0
  5  6  4  0
  5 22  1  0
  6  7  1  0
  6 14  4  0
  7  8  1  0
  8  9  4  0
  8 12  4  0
  9 10  4  0
 10 11  4  0
 11 12  4  0
 12 13  1  0
 13 14  1  0
 13 15  1  6
 15 16  4  0
 15 20  4  0
 16 17  4  0
 17 18  4  0
 17 21  1  0
 18 19  4  0
 19 20  4  0
 23 24  4  0
 24 25  1  0
 24 26  4  0
 26 27  1  0
 27 28  1  0
 28 29  2  0
 28 30  1  0
 30 31  1  0
 31 32  1  0
 32 33  2  0
 32 34  1  0
 34 35  4  0
 35 36  4  0
 36 37  4  0
 37 38  1  0
 38 39  1  0
 38 40  1  0
 38 41  1  0
 37 42  4  0
 42 43  4  0
 26 44  4  0
 44 45  1  0
 43 34  4  0
  2 23  4  0
  2 44  4  0
M  END
$$$$

     RDKit          3D

 45 50  0  0  0  0  0  0  0  0999 V2000
   -7.6410    4.9930    6.8080 C   0  0  0  0  0  0  0  0  0  1  0  0
   -7.7310    4.0530    5.7140 C   0  0  0  0  0  0  0  0  0  2  0  0
   -6.4520    5.6300    6.8680 N   0  0  0  0  0  0  0  0  0  0  0  0
   -6.2260    6.5240    7.8670 N   0  0  0  0  0  0  0  0  0  0  0  0
   -7.1930    6.7500    8.7820 C   0  0  0  0  0  0  0  0  0  0  0  0
   -8.4240    6.1170    8.7580 C   0  0  0  0  0  0  0  0  0  0  0  0
   -9.3950    6.3570    9.7450 N   0  0  0  0  0  0  0  0  0  0  0  0
  -10.5620    5.6840    9.7600 C   0  0  0  0  0  0  0  0  0  0  0  0
  -11.5770    5.6820   10.5960 N   0  0  0  0  0  0  0  0  0  0  0  0
  -12.4690    4.7490   10.1080 N   0  0  0  0  0  0  0  0  0  0  0  0
  -12.0160    4.1880    8.9920 N   0  0  0  0  0  0  0  0  0  0  0  0
  -10.8400    4.7900    8.7610 N   0  0  0  0  0  0  0  0  0  0  0  0
   -9.9950    4.4790    7.6090 C   0  0  0  0  0  0  0  0  0  0  0  0
   -8.6630    5.2070    7.7200 C   0  0  0  0  0  0  0  0  0  0  0  0
  -10.7490    4.8610    6.3730 C   0  0  0  0  0  0  0  0  0  0  0  0
  -11.0350    6.2020    6.1170 C   0  0  0  0  0  0  0  0  0  0  0  0
  -11.7370    6.5580    4.9650 C   0  0  0  0  0  0  0  0  0  0  0  0
  -12.1550    5.5730    4.0710 C   0  0  0  0  0  0  0  0  0  0  0  0
  -11.8700    4.2310    4.3270 C   0  0  0  0  0  0  0  0  0  0  0  0
  -11.1660    3.8760    5.4790 C   0  0  0  0  0  0  0  0  0  0  0  0
  -12.0160    7.8660    4.7150 O   0  0  0  0  0  0  0  0  0  0  0  0
   -6.8990    7.6510    9.7710 O   0  0  0  0  0  0  0  0  0  0  0  0
   -6.7447    3.3785    5.0392 C   0  0  0  0  0  0  0  0  0  0  0  0
   -7.3129    2.5501    4.0913 C   0  0  0  0  0  0  0  0  0  0  0  0
   -6.5333    1.6816    3.1435 C   0  0  0  0  0  0  0  0  0  0  0  0
   -8.6619    2.6634    4.1155 N   0  0  0  0  0  0  0  0  0  0  0  0
   -9.6053    1.9396    3.2528 C   0  0  0  0  0  0  0  0  0  0  0  0
  -10.1419    0.7297    3.9547 C   0  0  0  0  0  0  0  0  0  0  0  0
   -9.4002   -0.2813    4.0794 O   0  0  0  0  0  0  0  0  0  0  0  0
  -11.4933    0.7136    4.4435 N   0  0  0  0  0  0  0  0  0  0  0  0
  -12.1395   -0.4561    4.8847 N   0  0  0  0  0  0  0  0  0  0  0  0
  -11.4754   -1.4890    5.6251 C   0  0  0  0  0  0  0  0  0  0  0  0
  -10.5530   -1.1799    6.4233 O   0  0  0  0  0  0  0  0  0  0  0  0
  -11.8626   -2.9108    5.4600 C   0  0  0  0  0  0  0  0  0  0  0  0
  -11.2806   -3.9081    6.2623 C   0  0  0  0  0  0  0  0  0  0  0  0
  -11.5955   -5.2550    6.0693 C   0  0  0  0  0  0  0  0  0  0  0  0
  -12.4903   -5.6556    5.0547 C   0  0  0  0  0  0  0  0  0  0  0  0
  -12.7901   -7.1544    4.8506 C   0  0  0  0  0  0  0  0  0  0  0  0
  -13.7094   -7.4287    3.6362 C   0  0  0  0  0  0  0  0  0  0  0  0
  -13.4867   -7.7117    6.1078 C   0  0  0  0  0  0  0  0  0  0  0  0
  -11.4727   -7.9289    4.6157 C   0  0  0  0  0  0  0  0  0  0  0  0
  -13.0893   -4.6397    4.2676 C   0  0  0  0  0  0  0  0  0  0  0  0
  -12.7747   -3.2980    4.4668 C   0  0  0  0  0  0  0  0  0  0  0  0
   -8.9622    3.5566    5.0919 C   0  0  0  0  0  0  0  0  0  0  0  0
  -10.3538    3.9923    5.4520 C   0  0  0  0  0  0  0  0  0  0  0  0
  1  3  4  0
  1 14  4  0
  1  2  1  0
  3  4  4  0
  4  5  4  0
  5  6  4  0
  5 22  1  0
  6  7  1  0
  6 14  4  0
  7  8  1  0
  8  9  4  0
  8 12  4  0
  9 10  4  0
 10 11  4  0
 11 12  4  0
 12 13  1  0
 13 14  1  0
 13 15  1  6
 15 16  4  0
 15 20  4  0
 16 17  4  0
 17 18  4  0
 17 21  1  0
 18 19  4  0
 19 20  4  0
 23 24  4  0
 24 25  1  0
 24 26  4  0
 26 27  1  0
 27 28  1  0
 28 29  2  0
 28 30  1  0
 30 31  1  0
 31 32  1  0
 32 33  2  0
 32 34  1  0
 34 35  4  0
 35 36  4  0
 36 37  4  0
 37 38  1  0
 38 39  1  0
 38 40  1  0
 38 41  1  0
 37 42  4  0
 42 43  4  0
 26 44  4  0
 44 45  1  0
 43 34  4  0
  2 23  4  0
  2 44  4  0
M  END
$$$$

     RDKit          3D

 45 50  0  0  0  0  0  0  0  0999 V2000
   -7.6410    4.9930    6.8080 C   0  0  0  0  0  0  0  0  0  1  0  0
   -7.7310    4.0530    5.7140 C   0  0  0  0  0  0  0  0  0  2  0  0
   -6.4520    5.6300    6.8680 N   0  0  0  0  0  0  0  0  0  0  0  0
   -6.2260    6.5240    7.8670 N   0  0  0  0  0  0  0  0  0  0  0  0
   -7.1930    6.7500    8.7820 C   0  0  0  0  0  0  0  0  0  0  0  0
   -8.4240    6.1170    8.7580 C   0  0  0  0  0  0  0  0  0  0  0  0
   -9.3950    6.3570    9.7450 N   0  0  0  0  0  0  0  0  0  0  0  0
  -10.5620    5.6840    9.7600 C   0  0  0  0  0  0  0  0  0  0  0  0
  -11.5770    5.6820   10.5960 N   0  0  0  0  0  0  0  0  0  0  0  0
  -12.4690    4.7490   10.1080 N   0  0  0  0  0  0  0  0  0  0  0  0
  -12.0160    4.1880    8.9920 N   0  0  0  0  0  0  0  0  0  0  0  0
  -10.8400    4.7900    8.7610 N   0  0  0  0  0  0  0  0  0  0  0  0
   -9.9950    4.4790    7.6090 C   0  0  0  0  0  0  0  0  0  0  0  0
   -8.6630    5.2070    7.7200 C   0  0  0  0  0  0  0  0  0  0  0  0
  -10.7490    4.8610    6.3730 C   0  0  0  0  0  0  0  0  0  0  0  0
  -11.0350    6.2020    6.1170 C   0  0  0  0  0  0  0  0  0  0  0  0
  -11.7370    6.5580    4.9650 C   0  0  0  0  0  0  0  0  0  0  0  0
  -12.1550    5.5730    4.0710 C   0  0  0  0  0  0  0  0  0  0  0  0
  -11.8700    4.2310    4.3270 C   0  0  0  0  0  0  0  0  0  0  0  0
  -11.1660    3.8760    5.4790 C   0  0  0  0  0  0  0  0  0  0  0  0
  -12.0160    7.8660    4.7150 O   0  0  0  0  0  0  0  0  0  0  0  0
   -6.8990    7.6510    9.7710 O   0  0  0  0  0  0  0  0  0  0  0  0
   -6.7445    3.3654    5.0491 C   0  0  0  0  0  0  0  0  0  0  0  0
   -7.3133    2.5256    4.1147 C   0  0  0  0  0  0  0  0  0  0  0  0
   -6.5341    1.6291    3.2025 C   0  0  0  0  0  0  0  0  0  0  0  0
   -8.6637    2.6239    4.1498 N   0  0  0  0  0  0  0  0  0  0  0  0
   -9.6176    1.8583    3.3341 C   0  0  0  0  0  0  0  0  0  0  0  0
  -10.3665    0.8723    4.1892 C   0  0  0  0  0  0  0  0  0  0  0  0
  -11.5390    1.1449    4.5614 O   0  0  0  0  0  0  0  0  0  0  0  0
   -9.7499   -0.3344    4.6581 N   0  0  0  0  0  0  0  0  0  0  0  0
   -8.8506   -1.0913    3.8857 N   0  0  0  0  0  0  0  0  0  0  0  0
   -9.0905   -1.3770    2.4970 C   0  0  0  0  0  0  0  0  0  0  0  0
  -10.1993   -1.0602    1.9843 O   0  0  0  0  0  0  0  0  0  0  0  0
   -8.0751   -2.0712    1.6610 C   0  0  0  0  0  0  0  0  0  0  0  0
   -6.7343   -2.1702    2.0646 C   0  0  0  0  0  0  0  0  0  0  0  0
   -5.7931   -2.8174    1.2608 C   0  0  0  0  0  0  0  0  0  0  0  0
   -6.1582   -3.3980    0.0271 C   0  0  0  0  0  0  0  0  0  0  0  0
   -5.0849   -4.0903   -0.8393 C   0  0  0  0  0  0  0  0  0  0  0  0
   -4.0343   -3.0464   -1.2768 C   0  0  0  0  0  0  0  0  0  0  0  0
   -5.6659   -4.7455   -2.1173 C   0  0  0  0  0  0  0  0  0  0  0  0
   -4.3921   -5.2039   -0.0201 C   0  0  0  0  0  0  0  0  0  0  0  0
   -7.5075   -3.2801   -0.3779 C   0  0  0  0  0  0  0  0  0  0  0  0
   -8.4459   -2.6272    0.4256 C   0  0  0  0  0  0  0  0  0  0  0  0
   -8.9606    3.5509    5.0974 C   0  0  0  0  0  0  0  0  0  0  0  0
  -10.3528    4.0111    5.4320 C   0  0  0  0  0  0  0  0  0  0  0  0
  1  3  4  0
  1 14  4  0
  1  2  1  0
  3  4  4  0
  4  5  4  0
  5  6  4  0
  5 22  1  0
  6  7  1  0
  6 14  4  0
  7  8  1  0
  8  9  4  0
  8 12  4  0
  9 10  4  0
 10 11  4  0
 11 12  4  0
 12 13  1  0
 13 14  1  0
 13 15  1  6
 15 16  4  0
 15 20  4  0
 16 17  4  0
 17 18  4  0
 17 21  1  0
 18 19  4  0
 19 20  4  0
 23 24  4  0
 24 25  1  0
 24 26  4  0
 26 27  1  0
 27 28  1  0
 28 29  2  0
 28 30  1  0
 30 31  1  0
 31 32  1  0
 32 33  2  0
 32 34  1  0
 34 35  4  0
 35 36  4  0
 36 37  4  0
 37 38  1  0
 38 39  1  0
 38 40  1  0
 38 41  1  0
 37 42  4  0
 42 43  4  0
 26 44  4  0
 44 45  1  0
 43 34  4  0
  2 23  4  0
  2 44  4  0
M  END
$$$$

     RDKit          3D

 45 51  0  0  0  0  0  0  0  0999 V2000
   -7.6410    4.9930    6.8080 C   0  0  0  0  0  0  0  0  0  1  0  0
   -7.7310    4.0530    5.7140 C   0  0  0  0  0  0  0  0  0  2  0  0
   -6.4520    5.6300    6.8680 N   0  0  0  0  0  0  0  0  0  0  0  0
   -6.2260    6.5240    7.8670 N   0  0  0  0  0  0  0  0  0  0  0  0
   -7.1930    6.7500    8.7820 C   0  0  0  0  0  0  0  0  0  0  0  0
   -8.4240    6.1170    8.7580 C   0  0  0  0  0  0  0  0  0  0  0  0
   -9.3950    6.3570    9.7450 N   0  0  0  0  0  0  0  0  0  0  0  0
  -10.5620    5.6840    9.7600 C   0  0  0  0  0  0  0  0  0  0  0  0
  -11.5770    5.6820   10.5960 N   0  0  0  0  0  0  0  0  0  0  0  0
  -12.4690    4.7490   10.1080 N   0  0  0  0  0  0  0  0  0  0  0  0
  -12.0160    4.1880    8.9920 N   0  0  0  0  0  0  0  0  0  0  0  0
  -10.8400    4.7900    8.7610 N   0  0  0  0  0  0  0  0  0  0  0  0
   -9.9950    4.4790    7.6090 C   0  0  0  0  0  0  0  0  0  0  0  0
   -8.6630    5.2070    7.7200 C   0  0  0  0  0  0  0  0  0  0  0  0
  -10.7490    4.8610    6.3730 C   0  0  0  0  0  0  0  0  0  0  0  0
  -11.0350    6.2020    6.1170 C   0  0  0  0  0  0  0  0  0  0  0  0
  -11.7370    6.5580    4.9650 C   0  0  0  0  0  0  0  0  0  0  0  0
  -12.1550    5.5730    4.0710 C   0  0  0  0  0  0  0  0  0  0  0  0
  -11.8700    4.2310    4.3270 C   0  0  0  0  0  0  0  0  0  0  0  0
  -11.1660    3.8760    5.4790 C   0  0  0  0  0  0  0  0  0  0  0  0
  -12.0160    7.8660    4.7150 O   0  0  0  0  0  0  0  0  0  0  0  0
   -6.8990    7.6510    9.7710 O   0  0  0  0  0  0  0  0  0  0  0  0
   -6.7871    3.0561    5.4342 C   0  0  0  0  0  0  0  0  0  0  0  0
   -6.9088    2.1820    4.4463 O   0  0  0  0  0  0  0  0  0  0  0  0
   -7.9762    2.1264    3.6587 C   0  0  0  0  0  0  0  0  0  0  0  0
   -7.9965    1.1869    2.6261 C   0  0  0  0  0  0  0  0  0  0  0  0
   -9.0812    1.0998    1.7546 C   0  0  0  0  0  0  0  0  0  0  0  0
   -9.0140    0.1448    0.7231 O   0  0  0  0  0  0  0  0  0  0  0  0
   -9.9516   -0.0471   -0.3412 C   0  0  0  0  0  0  0  0  0  0  0  0
  -11.2507   -0.2444    0.1919 O   0  0  0  0  0  0  0  0  0  0  0  0
  -12.1688   -0.5999   -0.8289 C   0  0  0  0  0  0  0  0  0  0  0  0
  -13.5165   -0.9246   -0.1752 C   0  0  0  0  0  0  0  0  0  0  0  0
  -13.3581   -1.9804    0.7317 O   0  0  0  0  0  0  0  0  0  0  0  0
  -12.3184    0.5598   -1.8465 C   0  0  0  0  0  0  0  0  0  0  0  0
  -13.2326    0.2358   -2.8655 O   0  0  0  0  0  0  0  0  0  0  0  0
  -10.9414    0.9093   -2.4485 C   0  0  0  0  0  0  0  0  0  0  0  0
  -11.0300    2.0312   -3.2919 O   0  0  0  0  0  0  0  0  0  0  0  0
   -9.9110    1.1414   -1.3303 C   0  0  0  0  0  0  0  0  0  0  0  0
   -8.6317    1.2503   -1.8988 O   0  0  0  0  0  0  0  0  0  0  0  0
  -10.1840    1.9483    1.9540 C   0  0  0  0  0  0  0  0  0  0  0  0
  -10.2082    2.8721    3.0060 C   0  0  0  0  0  0  0  0  0  0  0  0
  -11.3933    3.5941    3.1758 O   0  0  0  0  0  0  0  0  0  0  0  0
   -9.0699    3.0084    3.8527 C   0  0  0  0  0  0  0  0  0  0  0  0
   -8.9330    3.9947    4.8611 C   0  0  0  0  0  0  0  0  0  0  0  0
   -9.7913    4.9058    5.0022 O   0  0  0  0  0  0  0  0  0  0  0  0
  1  3  4  0
  1 14  4  0
  1  2  1  0
  3  4  4  0
  4  5  4  0
  5  6  4  0
  5 22  1  0
  6  7  1  0
  6 14  4  0
  7  8  1  0
  8  9  4  0
  8 12  4  0
  9 10  4  0
 10 11  4  0
 11 12  4  0
 12 13  1  0
 13 14  1  0
 13 15  1  6
 15 16  4  0
 15 20  4  0
 16 17  4  0
 17 18  4  0
 17 21  1  0
 18 19  4  0
 19 20  4  0
 23 24  4  0
 24 25  4  0
 25 26  4  0
 26 27  4  0
 27 28  1  0
 28 29  1  0
 29 30  1  0
 30 31  1  0
 31 32  1  0
 32 33  1  0
 31 34  1  0
 34 35  1  0
 34 36  1  0
 36 37  1  0
 36 38  1  0
 38 39  1  0
 27 40  4  0
 40 41  4  0
 41 42  1  0
 41 43  4  0
 43 44  4  0
 44 45  2  0
 43 25  4  0
 38 29  1  0
  2 23  4  0
  2 44  4  0
M  END
$$$$

     RDKit          3D

 45 51  0  0  0  0  0  0  0  0999 V2000
   -7.6410    4.9930    6.8080 C   0  0  0  0  0  0  0  0  0  1  0  0
   -7.7310    4.0530    5.7140 C   0  0  0  0  0  0  0  0  0  2  0  0
   -6.4520    5.6300    6.8680 N   0  0  0  0  0  0  0  0  0  0  0  0
   -6.2260    6.5240    7.8670 N   0  0  0  0  0  0  0  0  0  0  0  0
   -7.1930    6.7500    8.7820 C   0  0  0  0  0  0  0  0  0  0  0  0
   -8.4240    6.1170    8.7580 C   0  0  0  0  0  0  0  0  0  0  0  0
   -9.3950    6.3570    9.7450 N   0  0  0  0  0  0  0  0  0  0  0  0
  -10.5620    5.6840    9.7600 C   0  0  0  0  0  0  0  0  0  0  0  0
  -11.5770    5.6820   10.5960 N   0  0  0  0  0  0  0  0  0  0  0  0
  -12.4690    4.7490   10.1080 N   0  0  0  0  0  0  0  0  0  0  0  0
  -12.0160    4.1880    8.9920 N   0  0  0  0  0  0  0  0  0  0  0  0
  -10.8400    4.7900    8.7610 N   0  0  0  0  0  0  0  0  0  0  0  0
   -9.9950    4.4790    7.6090 C   0  0  0  0  0  0  0  0  0  0  0  0
   -8.6630    5.2070    7.7200 C   0  0  0  0  0  0  0  0  0  0  0  0
  -10.7490    4.8610    6.3730 C   0  0  0  0  0  0  0  0  0  0  0  0
  -11.0350    6.2020    6.1170 C   0  0  0  0  0  0  0  0  0  0  0  0
  -11.7370    6.5580    4.9650 C   0  0  0  0  0  0  0  0  0  0  0  0
  -12.1550    5.5730    4.0710 C   0  0  0  0  0  0  0  0  0  0  0  0
  -11.8700    4.2310    4.3270 C   0  0  0  0  0  0  0  0  0  0  0  0
  -11.1660    3.8760    5.4790 C   0  0  0  0  0  0  0  0  0  0  0  0
  -12.0160    7.8660    4.7150 O   0  0  0  0  0  0  0  0  0  0  0  0
   -6.8990    7.6510    9.7710 O   0  0  0  0  0  0  0  0  0  0  0  0
   -6.7994    3.0348    5.4546 C   0  0  0  0  0  0  0  0  0  0  0  0
   -6.9351    2.1371    4.4874 O   0  0  0  0  0  0  0  0  0  0  0  0
   -7.9949    2.0949    3.6879 C   0  0  0  0  0  0  0  0  0  0  0  0
   -8.0608    1.1112    2.6979 C   0  0  0  0  0  0  0  0  0  0  0  0
   -9.1584    1.0345    1.8382 C   0  0  0  0  0  0  0  0  0  0  0  0
   -9.1723    0.0148    0.8736 O   0  0  0  0  0  0  0  0  0  0  0  0
  -10.2316   -0.2205   -0.0643 C   0  0  0  0  0  0  0  0  0  0  0  0
  -11.4407   -0.5615    0.5936 O   0  0  0  0  0  0  0  0  0  0  0  0
  -11.2751   -1.6438    1.5047 C   0  0  0  0  0  0  0  0  0  0  0  0
  -12.6717   -2.1205    1.9441 C   0  0  0  0  0  0  0  0  0  0  0  0
  -13.4111   -1.0509    2.4712 O   0  0  0  0  0  0  0  0  0  0  0  0
  -10.3907   -2.8013    0.9289 C   0  0  0  0  0  0  0  0  0  0  0  0
  -10.8599   -4.0666    1.3267 O   0  0  0  0  0  0  0  0  0  0  0  0
  -10.2857   -2.7285   -0.6079 C   0  0  0  0  0  0  0  0  0  0  0  0
  -11.4966   -3.1150   -1.2138 O   0  0  0  0  0  0  0  0  0  0  0  0
   -9.8393   -1.3179   -1.0806 C   0  0  0  0  0  0  0  0  0  0  0  0
   -8.4490   -1.2896   -1.2882 O   0  0  0  0  0  0  0  0  0  0  0  0
  -10.2031    1.9661    1.9714 C   0  0  0  0  0  0  0  0  0  0  0  0
  -10.1562    2.9598    2.9605 C   0  0  0  0  0  0  0  0  0  0  0  0
  -11.2129    3.8654    3.0679 O   0  0  0  0  0  0  0  0  0  0  0  0
   -9.0451    3.0317    3.8340 C   0  0  0  0  0  0  0  0  0  0  0  0
   -8.9257    4.0024    4.8526 C   0  0  0  0  0  0  0  0  0  0  0  0
   -9.8167    4.8817    5.0120 O   0  0  0  0  0  0  0  0  0  0  0  0
  1  3  4  0
  1 14  4  0
  1  2  1  0
  3  4  4  0
  4  5  4  0
  5  6  4  0
  5 22  1  0
  6  7  1  0
  6 14  4  0
  7  8  1  0
  8  9  4  0
  8 12  4  0
  9 10  4  0
 10 11  4  0
 11 12  4  0
 12 13  1  0
 13 14  1  0
 13 15  1  6
 15 16  4  0
 15 20  4  0
 16 17  4  0
 17 18  4  0
 17 21  1  0
 18 19  4  0
 19 20  4  0
 23 24  4  0
 24 25  4  0
 25 26  4  0
 26 27  4  0
 27 28  1  0
 28 29  1  0
 29 30  1  0
 30 31  1  0
 31 32  1  0
 32 33  1  0
 31 34  1  0
 34 35  1  0
 34 36  1  0
 36 37  1  0
 36 38  1  0
 38 39  1  0
 27 40  4  0
 40 41  4  0
 41 42  1  0
 41 43  4  0
 43 44  4  0
 44 45  2  0
 43 25  4  0
 38 29  1  0
  2 23  4  0
  2 44  4  0
M  END
$$$$

     RDKit          3D

 45 51  0  0  0  0  0  0  0  0999 V2000
   -7.6410    4.9930    6.8080 C   0  0  0  0  0  0  0  0  0  1  0  0
   -7.7310    4.0530    5.7140 C   0  0  0  0  0  0  0  0  0  2  0  0
   -6.4520    5.6300    6.8680 N   0  0  0  0  0  0  0  0  0  0  0  0
   -6.2260    6.5240    7.8670 N   0  0  0  0  0  0  0  0  0  0  0  0
   -7.1930    6.7500    8.7820 C   0  0  0  0  0  0  0  0  0  0  0  0
   -8.4240    6.1170    8.7580 C   0  0  0  0  0  0  0  0  0  0  0  0
   -9.3950    6.3570    9.7450 N   0  0  0  0  0  0  0  0  0  0  0  0
  -10.5620    5.6840    9.7600 C   0  0  0  0  0  0  0  0  0  0  0  0
  -11.5770    5.6820   10.5960 N   0  0  0  0  0  0  0  0  0  0  0  0
  -12.4690    4.7490   10.1080 N   0  0  0  0  0  0  0  0  0  0  0  0
  -12.0160    4.1880    8.9920 N   0  0  0  0  0  0  0  0  0  0  0  0
  -10.8400    4.7900    8.7610 N   0  0  0  0  0  0  0  0  0  0  0  0
   -9.9950    4.4790    7.6090 C   0  0  0  0  0  0  0  0  0  0  0  0
   -8.6630    5.2070    7.7200 C   0  0  0  0  0  0  0  0  0  0  0  0
  -10.7490    4.8610    6.3730 C   0  0  0  0  0  0  0  0  0  0  0  0
  -11.0350    6.2020    6.1170 C   0  0  0  0  0  0  0  0  0  0  0  0
  -11.7370    6.5580    4.9650 C   0  0  0  0  0  0  0  0  0  0  0  0
  -12.1550    5.5730    4.0710 C   0  0  0  0  0  0  0  0  0  0  0  0
  -11.8700    4.2310    4.3270 C   0  0  0  0  0  0  0  0  0  0  0  0
  -11.1660    3.8760    5.4790 C   0  0  0  0  0  0  0  0  0  0  0  0
  -12.0160    7.8660    4.7150 O   0  0  0  0  0  0  0  0  0  0  0  0
   -6.8990    7.6510    9.7710 O   0  0  0  0  0  0  0  0  0  0  0  0
   -6.7872    3.0558    5.4348 C   0  0  0  0  0  0  0  0  0  0  0  0
   -6.9086    2.1817    4.4468 O   0  0  0  0  0  0  0  0  0  0  0  0
   -7.9756    2.1263    3.6588 C   0  0  0  0  0  0  0  0  0  0  0  0
   -7.9955    1.1866    2.6261 C   0  0  0  0  0  0  0  0  0  0  0  0
   -9.0806    1.1014    1.7552 C   0  0  0  0  0  0  0  0  0  0  0  0
   -9.0218    0.1496    0.7222 O   0  0  0  0  0  0  0  0  0  0  0  0
   -9.9726   -0.0073   -0.3335 C   0  0  0  0  0  0  0  0  0  0  0  0
   -9.7323   -1.2605   -0.9491 O   0  0  0  0  0  0  0  0  0  0  0  0
  -10.6581   -1.5585   -1.9880 C   0  0  0  0  0  0  0  0  0  0  0  0
  -12.0306   -2.0346   -1.4542 C   0  0  0  0  0  0  0  0  0  0  0  0
  -12.8660   -0.9705   -1.0848 O   0  0  0  0  0  0  0  0  0  0  0  0
  -10.7187   -0.4669   -3.0901 C   0  0  0  0  0  0  0  0  0  0  0  0
   -9.5601   -0.5661   -3.8828 O   0  0  0  0  0  0  0  0  0  0  0  0
  -10.8236    0.9500   -2.4903 C   0  0  0  0  0  0  0  0  0  0  0  0
  -10.6230    1.9118   -3.4949 O   0  0  0  0  0  0  0  0  0  0  0  0
   -9.8076    1.1361   -1.3510 C   0  0  0  0  0  0  0  0  0  0  0  0
   -8.4926    1.1325   -1.8488 O   0  0  0  0  0  0  0  0  0  0  0  0
  -10.1836    1.9485    1.9535 C   0  0  0  0  0  0  0  0  0  0  0  0
  -10.2081    2.8726    3.0054 C   0  0  0  0  0  0  0  0  0  0  0  0
  -11.3931    3.5949    3.1747 O   0  0  0  0  0  0  0  0  0  0  0  0
   -9.0696    3.0086    3.8523 C   0  0  0  0  0  0  0  0  0  0  0  0
   -8.9329    3.9948    4.8608 C   0  0  0  0  0  0  0  0  0  0  0  0
   -9.7910    4.9060    5.0017 O   0  0  0  0  0  0  0  0  0  0  0  0
  1  3  4  0
  1 14  4  0
  1  2  1  0
  3  4  4  0
  4  5  4  0
  5  6  4  0
  5 22  1  0
  6  7  1  0
  6 14  4  0
  7  8  1  0
  8  9  4  0
  8 12  4  0
  9 10  4  0
 10 11  4  0
 11 12  4  0
 12 13  1  0
 13 14  1  0
 13 15  1  6
 15 16  4  0
 15 20  4  0
 16 17  4  0
 17 18  4  0
 17 21  1  0
 18 19  4  0
 19 20  4  0
 23 24  4  0
 24 25  4  0
 25 26  4  0
 26 27  4  0
 27 28  1  0
 28 29  1  0
 29 30  1  0
 30 31  1  0
 31 32  1  0
 32 33  1  0
 31 34  1  0
 34 35  1  0
 34 36  1  0
 36 37  1  0
 36 38  1  0
 38 39  1  0
 27 40  4  0
 40 41  4  0
 41 42  1  0
 41 43  4  0
 43 44  4  0
 44 45  2  0
 43 25  4  0
 38 29  1  0
  2 23  4  0
  2 44  4  0
M  END
$$$$

     RDKit          3D

 44 50  0  0  0  0  0  0  0  0999 V2000
   -7.6410    4.9930    6.8080 C   0  0  0  0  0  0  0  0  0  1  0  0
   -7.7310    4.0530    5.7140 C   0  0  0  0  0  0  0  0  0  2  0  0
   -6.4520    5.6300    6.8680 N   0  0  0  0  0  0  0  0  0  0  0  0
   -6.2260    6.5240    7.8670 N   0  0  0  0  0  0  0  0  0  0  0  0
   -7.1930    6.7500    8.7820 C   0  0  0  0  0  0  0  0  0  0  0  0
   -8.4240    6.1170    8.7580 C   0  0  0  0  0  0  0  0  0  0  0  0
   -9.3950    6.3570    9.7450 N   0  0  0  0  0  0  0  0  0  0  0  0
  -10.5620    5.6840    9.7600 C   0  0  0  0  0  0  0  0  0  0  0  0
  -11.5770    5.6820   10.5960 N   0  0  0  0  0  0  0  0  0  0  0  0
  -12.4690    4.7490   10.1080 N   0  0  0  0  0  0  0  0  0  0  0  0
  -12.0160    4.1880    8.9920 N   0  0  0  0  0  0  0  0  0  0  0  0
  -10.8400    4.7900    8.7610 N   0  0  0  0  0  0  0  0  0  0  0  0
   -9.9950    4.4790    7.6090 C   0  0  0  0  0  0  0  0  0  0  0  0
   -8.6630    5.2070    7.7200 C   0  0  0  0  0  0  0  0  0  0  0  0
  -10.7490    4.8610    6.3730 C   0  0  0  0  0  0  0  0  0  0  0  0
  -11.0350    6.2020    6.1170 C   0  0  0  0  0  0  0  0  0  0  0  0
  -11.7370    6.5580    4.9650 C   0  0  0  0  0  0  0  0  0  0  0  0
  -12.1550    5.5730    4.0710 C   0  0  0  0  0  0  0  0  0  0  0  0
  -11.8700    4.2310    4.3270 C   0  0  0  0  0  0  0  0  0  0  0  0
  -11.1660    3.8760    5.4790 C   0  0  0  0  0  0  0  0  0  0  0  0
  -12.0160    7.8660    4.7150 O   0  0  0  0  0  0  0  0  0  0  0  0
   -6.8990    7.6510    9.7710 O   0  0  0  0  0  0  0  0  0  0  0  0
   -6.7697    3.1559    5.3612 N   0  0  0  0  0  0  0  0  0  0  0  0
   -7.0962    2.3425    4.3331 C   0  0  0  0  0  0  0  0  0  0  0  0
   -6.2176    1.3539    3.7821 N   0  0  0  0  0  0  0  0  0  0  0  0
   -4.9509    1.0016    4.3612 C   0  0  0  0  0  0  0  0  0  0  0  0
   -4.5119    1.6191    5.3690 O   0  0  0  0  0  0  0  0  0  0  0  0
   -4.1098   -0.0820    3.7492 C   0  0  0  0  0  0  0  0  0  0  0  0
   -4.9165   -1.1472    3.2461 O   0  0  0  0  0  0  0  0  0  0  0  0
   -5.7014   -2.0126    4.0283 C   0  0  0  0  0  0  0  0  0  0  0  0
   -5.7136   -1.9640    5.4350 C   0  0  0  0  0  0  0  0  0  0  0  0
   -6.5320   -2.8325    6.1638 C   0  0  0  0  0  0  0  0  0  0  0  0
   -7.3505   -3.7668    5.5045 C   0  0  0  0  0  0  0  0  0  1  0  0
   -8.2365   -4.6739    6.2793 C   0  0  0  0  0  0  0  0  0  2  0  0
   -8.3897   -6.0220    5.9023 C   0  0  0  0  0  0  0  0  0  0  0  0
   -9.2289   -6.8701    6.6320 C   0  0  0  0  0  0  0  0  0  0  0  0
   -9.9233   -6.3843    7.7420 C   0  0  0  0  0  0  0  0  0  0  0  0
   -9.7801   -5.0494    8.1261 C   0  0  0  0  0  0  0  0  0  0  0  0
   -8.9415   -4.1970    7.4015 C   0  0  0  0  0  0  0  0  0  0  0  0
   -7.3221   -3.8212    4.0996 C   0  0  0  0  0  0  0  0  0  0  0  0
   -6.5033   -2.9534    3.3725 C   0  0  0  0  0  0  0  0  0  0  0  0
   -8.6485    2.6418    3.7659 S   0  0  0  0  0  0  0  0  0  0  0  0
   -8.9241    3.8743    4.8807 C   0  0  0  0  0  0  0  0  0  0  0  0
  -10.1879    4.6712    4.9527 C   0  0  0  0  0  0  0  0  0  0  0  0
  1  3  4  0
  1 14  4  0
  1  2  1  0
  3  4  4  0
  4  5  4  0
  5  6  4  0
  5 22  1  0
  6  7  1  0
  6 14  4  0
  7  8  1  0
  8  9  4  0
  8 12  4  0
  9 10  4  0
 10 11  4  0
 11 12  4  0
 12 13  1  0
 13 14  1  0
 13 15  1  6
 15 16  4  0
 15 20  4  0
 16 17  4  0
 17 18  4  0
 17 21  1  0
 18 19  4  0
 19 20  4  0
 23 24  4  0
 24 25  1  0
 25 26  1  0
 26 27  2  0
 26 28  1  0
 28 29  1  0
 29 30  1  0
 30 31  4  0
 31 32  4  0
 32 33  4  0
 33 34  1  0
 34 35  4  0
 35 36  4  0
 36 37  4  0
 37 38  4  0
 38 39  4  0
 33 40  4  0
 40 41  4  0
 24 42  4  0
 42 43  4  0
 43 44  1  0
 41 30  4  0
 39 34  4  0
  2 23  4  0
  2 43  4  0
M  END
$$$$

     RDKit          3D

 46 51  0  0  0  0  0  0  0  0999 V2000
   -7.6410    4.9930    6.8080 C   0  0  0  0  0  0  0  0  0  1  0  0
   -7.7310    4.0530    5.7140 C   0  0  0  0  0  0  0  0  0  2  0  0
   -6.4520    5.6300    6.8680 N   0  0  0  0  0  0  0  0  0  0  0  0
   -6.2260    6.5240    7.8670 N   0  0  0  0  0  0  0  0  0  0  0  0
   -7.1930    6.7500    8.7820 C   0  0  0  0  0  0  0  0  0  0  0  0
   -8.4240    6.1170    8.7580 C   0  0  0  0  0  0  0  0  0  0  0  0
   -9.3950    6.3570    9.7450 N   0  0  0  0  0  0  0  0  0  0  0  0
  -10.5620    5.6840    9.7600 C   0  0  0  0  0  0  0  0  0  0  0  0
  -11.5770    5.6820   10.5960 N   0  0  0  0  0  0  0  0  0  0  0  0
  -12.4690    4.7490   10.1080 N   0  0  0  0  0  0  0  0  0  0  0  0
  -12.0160    4.1880    8.9920 N   0  0  0  0  0  0  0  0  0  0  0  0
  -10.8400    4.7900    8.7610 N   0  0  0  0  0  0  0  0  0  0  0  0
   -9.9950    4.4790    7.6090 C   0  0  0  0  0  0  0  0  0  0  0  0
   -8.6630    5.2070    7.7200 C   0  0  0  0  0  0  0  0  0  0  0  0
  -10.7490    4.8610    6.3730 C   0  0  0  0  0  0  0  0  0  0  0  0
  -11.0350    6.2020    6.1170 C   0  0  0  0  0  0  0  0  0  0  0  0
  -11.7370    6.5580    4.9650 C   0  0  0  0  0  0  0  0  0  0  0  0
  -12.1550    5.5730    4.0710 C   0  0  0  0  0  0  0  0  0  0  0  0
  -11.8700    4.2310    4.3270 C   0  0  0  0  0  0  0  0  0  0  0  0
  -11.1660    3.8760    5.4790 C   0  0  0  0  0  0  0  0  0  0  0  0
  -12.0160    7.8660    4.7150 O   0  0  0  0  0  0  0  0  0  0  0  0
   -6.8990    7.6510    9.7710 O   0  0  0  0  0  0  0  0  0  0  0  0
   -6.8647    3.0603    5.4158 N   0  0  0  0  0  0  0  0  0  0  0  0
   -7.3042    2.3821    4.3671 N   0  0  0  0  0  0  0  0  0  0  0  0
   -8.4796    2.9314    4.0112 C   0  0  0  0  0  0  0  0  0  0  0  0
   -9.4459    2.3604    2.6082 S   0  0  0  0  0  0  0  0  0  0  0  0
  -10.5801    1.3251    3.6079 C   0  0  0  0  0  0  0  0  0  0  0  0
   -9.8835    0.0235    4.0243 C   0  0  0  0  0  0  0  0  0  0  0  0
  -11.8357    1.0705    2.8117 C   0  0  0  0  0  0  0  0  0  0  0  0
  -12.2052   -0.1097    2.5538 O   0  0  0  0  0  0  0  0  0  0  0  0
  -12.6281    2.1796    2.3633 N   0  0  0  0  0  0  0  0  0  0  0  0
  -13.8344    1.9953    1.6080 C   0  0  0  0  0  0  0  0  0  0  0  0
  -15.0785    2.2557    2.2251 C   0  0  0  0  0  0  0  0  0  0  0  0
  -15.1408    2.7417    3.6469 C   0  0  0  0  0  0  0  0  0  0  0  0
  -16.2653    2.0707    1.5016 C   0  0  0  0  0  0  0  0  0  0  0  0
  -16.2245    1.6318    0.1804 C   0  0  0  0  0  0  0  0  0  0  0  0
  -15.0009    1.3886   -0.4413 C   0  0  0  0  0  0  0  0  0  0  0  0
  -13.7887    1.5754    0.2519 C   0  0  0  0  0  0  0  0  0  0  0  0
  -12.4671    1.3729   -0.4821 C   0  0  0  0  0  0  0  0  0  0  0  0
  -12.3156   -0.0753   -0.9653 C   0  0  0  0  0  0  0  0  0  0  0  0
  -12.3276    2.3579   -1.6496 C   0  0  0  0  0  0  0  0  0  0  0  0
   -8.8177    3.9561    4.8207 N   0  0  0  0  0  0  0  0  0  0  0  0
   -9.9215    4.9068    4.6450 C   0  0  0  0  0  0  0  0  0  0  0  0
   -9.4704    6.1364    3.9148 C   0  0  0  0  0  0  0  0  0  0  0  0
  -10.2914    7.0654    3.6943 O   0  0  0  0  0  0  0  0  0  0  0  0
   -8.1600    6.2620    3.4657 O   0  0  0  0  0  0  0  0  0  0  0  0
  1  3  4  0
  1 14  4  0
  1  2  1  0
  3  4  4  0
  4  5  4  0
  5  6  4  0
  5 22  1  0
  6  7  1  0
  6 14  4  0
  7  8  1  0
  8  9  4  0
  8 12  4  0
  9 10  4  0
 10 11  4  0
 11 12  4  0
 12 13  1  0
 13 14  1  0
 13 15  1  6
 15 16  4  0
 15 20  4  0
 16 17  4  0
 17 18  4  0
 17 21  1  0
 18 19  4  0
 19 20  4  0
 23 24  4  0
 24 25  4  0
 25 26  1  0
 26 27  1  0
 27 28  1  0
 27 29  1  0
 29 30  2  0
 29 31  1  0
 31 32  1  0
 32 33  4  0
 33 34  1  0
 33 35  4  0
 35 36  4  0
 36 37  4  0
 37 38  4  0
 38 39  1  0
 39 40  1  0
 39 41  1  0
 25 42  4  0
 42 43  1  0
 43 44  1  0
 44 45  2  0
 44 46  1  0
 38 32  4  0
  2 23  4  0
  2 42  4  0
M  CHG  1  46  -1
M  END
$$$$

     RDKit          3D

 46 51  0  0  0  0  0  0  0  0999 V2000
   -7.6410    4.9930    6.8080 C   0  0  0  0  0  0  0  0  0  1  0  0
   -7.7310    4.0530    5.7140 C   0  0  0  0  0  0  0  0  0  2  0  0
   -6.4520    5.6300    6.8680 N   0  0  0  0  0  0  0  0  0  0  0  0
   -6.2260    6.5240    7.8670 N   0  0  0  0  0  0  0  0  0  0  0  0
   -7.1930    6.7500    8.7820 C   0  0  0  0  0  0  0  0  0  0  0  0
   -8.4240    6.1170    8.7580 C   0  0  0  0  0  0  0  0  0  0  0  0
   -9.3950    6.3570    9.7450 N   0  0  0  0  0  0  0  0  0  0  0  0
  -10.5620    5.6840    9.7600 C   0  0  0  0  0  0  0  0  0  0  0  0
  -11.5770    5.6820   10.5960 N   0  0  0  0  0  0  0  0  0  0  0  0
  -12.4690    4.7490   10.1080 N   0  0  0  0  0  0  0  0  0  0  0  0
  -12.0160    4.1880    8.9920 N   0  0  0  0  0  0  0  0  0  0  0  0
  -10.8400    4.7900    8.7610 N   0  0  0  0  0  0  0  0  0  0  0  0
   -9.9950    4.4790    7.6090 C   0  0  0  0  0  0  0  0  0  0  0  0
   -8.6630    5.2070    7.7200 C   0  0  0  0  0  0  0  0  0  0  0  0
  -10.7490    4.8610    6.3730 C   0  0  0  0  0  0  0  0  0  0  0  0
  -11.0350    6.2020    6.1170 C   0  0  0  0  0  0  0  0  0  0  0  0
  -11.7370    6.5580    4.9650 C   0  0  0  0  0  0  0  0  0  0  0  0
  -12.1550    5.5730    4.0710 C   0  0  0  0  0  0  0  0  0  0  0  0
  -11.8700    4.2310    4.3270 C   0  0  0  0  0  0  0  0  0  0  0  0
  -11.1660    3.8760    5.4790 C   0  0  0  0  0  0  0  0  0  0  0  0
  -12.0160    7.8660    4.7150 O   0  0  0  0  0  0  0  0  0  0  0  0
   -6.8990    7.6510    9.7710 O   0  0  0  0  0  0  0  0  0  0  0  0
   -6.7990    3.1598    5.3255 N   0  0  0  0  0  0  0  0  0  0  0  0
   -7.2556    2.4356    4.3160 N   0  0  0  0  0  0  0  0  0  0  0  0
   -8.5077    2.8594    4.0682 C   0  0  0  0  0  0  0  0  0  0  0  0
   -9.5390    2.1719    2.7693 S   0  0  0  0  0  0  0  0  0  0  0  0
   -9.0190    3.3675    1.4867 C   0  0  0  0  0  0  0  0  0  0  0  0
   -7.7275    2.9023    0.8126 C   0  0  0  0  0  0  0  0  0  0  0  0
  -10.1197    3.5166    0.4748 C   0  0  0  0  0  0  0  0  0  0  0  0
  -10.5913    4.6616    0.2402 O   0  0  0  0  0  0  0  0  0  0  0  0
  -10.6287    2.3705   -0.2244 N   0  0  0  0  0  0  0  0  0  0  0  0
  -11.7370    2.4604   -1.1291 C   0  0  0  0  0  0  0  0  0  0  0  0
  -13.0430    2.6384   -0.6099 C   0  0  0  0  0  0  0  0  0  0  0  0
  -13.2871    2.7543    0.8728 C   0  0  0  0  0  0  0  0  0  0  0  0
  -14.1311    2.7433   -1.4879 C   0  0  0  0  0  0  0  0  0  0  0  0
  -13.9413    2.6297   -2.8618 C   0  0  0  0  0  0  0  0  0  0  0  0
  -12.6658    2.4155   -3.3797 C   0  0  0  0  0  0  0  0  0  0  0  0
  -11.5448    2.3207   -2.5328 C   0  0  0  0  0  0  0  0  0  0  0  0
  -10.1787    2.0956   -3.1788 C   0  0  0  0  0  0  0  0  0  0  0  0
   -9.2752    3.3262   -3.0502 C   0  0  0  0  0  0  0  0  0  0  0  0
   -9.4797    0.8224   -2.6817 C   0  0  0  0  0  0  0  0  0  0  0  0
   -8.8803    3.8430    4.9131 N   0  0  0  0  0  0  0  0  0  0  0  0
  -10.1061    4.6461    4.8495 C   0  0  0  0  0  0  0  0  0  0  0  0
  -11.3012    3.8125    5.1946 C   0  0  0  0  0  0  0  0  0  0  0  0
  -12.2675    3.7287    4.3897 O   0  0  0  0  0  0  0  0  0  0  0  0
  -11.3595    3.1405    6.4093 O   0  0  0  0  0  0  0  0  0  0  0  0
  1  3  4  0
  1 14  4  0
  1  2  1  0
  3  4  4  0
  4  5  4  0
  5  6  4  0
  5 22  1  0
  6  7  1  0
  6 14  4  0
  7  8  1  0
  8  9  4  0
  8 12  4  0
  9 10  4  0
 10 11  4  0
 11 12  4  0
 12 13  1  0
 13 14  1  0
 13 15  1  6
 15 16  4  0
 15 20  4  0
 16 17  4  0
 17 18  4  0
 17 21  1  0
 18 19  4  0
 19 20  4  0
 23 24  4  0
 24 25  4  0
 25 26  1  0
 26 27  1  0
 27 28  1  0
 27 29  1  0
 29 30  2  0
 29 31  1  0
 31 32  1  0
 32 33  4  0
 33 34  1  0
 33 35  4  0
 35 36  4  0
 36 37  4  0
 37 38  4  0
 38 39  1  0
 39 40  1  0
 39 41  1  0
 25 42  4  0
 42 43  1  0
 43 44  1  0
 44 45  2  0
 44 46  1  0
 38 32  4  0
  2 23  4  0
  2 42  4  0
M  CHG  1  46  -1
M  END
$$$$

     RDKit          3D

 46 51  0  0  0  0  0  0  0  0999 V2000
   -7.6410    4.9930    6.8080 C   0  0  0  0  0  0  0  0  0  1  0  0
   -7.7310    4.0530    5.7140 C   0  0  0  0  0  0  0  0  0  2  0  0
   -6.4520    5.6300    6.8680 N   0  0  0  0  0  0  0  0  0  0  0  0
   -6.2260    6.5240    7.8670 N   0  0  0  0  0  0  0  0  0  0  0  0
   -7.1930    6.7500    8.7820 C   0  0  0  0  0  0  0  0  0  0  0  0
   -8.4240    6.1170    8.7580 C   0  0  0  0  0  0  0  0  0  0  0  0
   -9.3950    6.3570    9.7450 N   0  0  0  0  0  0  0  0  0  0  0  0
  -10.5620    5.6840    9.7600 C   0  0  0  0  0  0  0  0  0  0  0  0
  -11.5770    5.6820   10.5960 N   0  0  0  0  0  0  0  0  0  0  0  0
  -12.4690    4.7490   10.1080 N   0  0  0  0  0  0  0  0  0  0  0  0
  -12.0160    4.1880    8.9920 N   0  0  0  0  0  0  0  0  0  0  0  0
  -10.8400    4.7900    8.7610 N   0  0  0  0  0  0  0  0  0  0  0  0
   -9.9950    4.4790    7.6090 C   0  0  0  0  0  0  0  0  0  0  0  0
   -8.6630    5.2070    7.7200 C   0  0  0  0  0  0  0  0  0  0  0  0
  -10.7490    4.8610    6.3730 C   0  0  0  0  0  0  0  0  0  0  0  0
  -11.0350    6.2020    6.1170 C   0  0  0  0  0  0  0  0  0  0  0  0
  -11.7370    6.5580    4.9650 C   0  0  0  0  0  0  0  0  0  0  0  0
  -12.1550    5.5730    4.0710 C   0  0  0  0  0  0  0  0  0  0  0  0
  -11.8700    4.2310    4.3270 C   0  0  0  0  0  0  0  0  0  0  0  0
  -11.1660    3.8760    5.4790 C   0  0  0  0  0  0  0  0  0  0  0  0
  -12.0160    7.8660    4.7150 O   0  0  0  0  0  0  0  0  0  0  0  0
   -6.8990    7.6510    9.7710 O   0  0  0  0  0  0  0  0  0  0  0  0
   -6.8206    3.1298    5.3425 N   0  0  0  0  0  0  0  0  0  0  0  0
   -7.2744    2.4348    4.3104 N   0  0  0  0  0  0  0  0  0  0  0  0
   -8.5092    2.8960    4.0414 C   0  0  0  0  0  0  0  0  0  0  0  0
   -9.5167    2.3026    2.6748 S   0  0  0  0  0  0  0  0  0  0  0  0
  -10.2764    0.8445    3.5007 C   0  0  0  0  0  0  0  0  0  0  0  0
  -10.7690    1.1238    4.9279 C   0  0  0  0  0  0  0  0  0  0  0  0
   -9.3280   -0.3344    3.4685 C   0  0  0  0  0  0  0  0  0  0  0  0
   -8.2926   -0.3111    4.1875 O   0  0  0  0  0  0  0  0  0  0  0  0
   -9.5661   -1.4877    2.6411 N   0  0  0  0  0  0  0  0  0  0  0  0
  -10.6385   -1.5690    1.6860 C   0  0  0  0  0  0  0  0  0  0  0  0
  -10.4062   -1.1872    0.3447 C   0  0  0  0  0  0  0  0  0  0  0  0
   -9.0457   -0.7060   -0.0931 C   0  0  0  0  0  0  0  0  0  0  0  0
  -11.4402   -1.2939   -0.5966 C   0  0  0  0  0  0  0  0  0  0  0  0
  -12.6936   -1.7716   -0.2192 C   0  0  0  0  0  0  0  0  0  0  0  0
  -12.9308   -2.1499    1.1016 C   0  0  0  0  0  0  0  0  0  0  0  0
  -11.9168   -2.0451    2.0767 C   0  0  0  0  0  0  0  0  0  0  0  0
  -12.1971   -2.4882    3.5075 C   0  0  0  0  0  0  0  0  0  0  0  0
  -13.3994   -1.7453    4.1042 C   0  0  0  0  0  0  0  0  0  0  0  0
  -12.3990   -4.0028    3.5753 C   0  0  0  0  0  0  0  0  0  0  0  0
   -8.8674    3.8869    4.8842 N   0  0  0  0  0  0  0  0  0  0  0  0
  -10.0002    4.8067    4.7200 C   0  0  0  0  0  0  0  0  0  0  0  0
   -9.6161    5.9462    3.8277 C   0  0  0  0  0  0  0  0  0  0  0  0
   -8.7283    6.7649    4.1915 O   0  0  0  0  0  0  0  0  0  0  0  0
  -10.2447    6.1114    2.5988 O   0  0  0  0  0  0  0  0  0  0  0  0
  1  3  4  0
  1 14  4  0
  1  2  1  0
  3  4  4  0
  4  5  4  0
  5  6  4  0
  5 22  1  0
  6  7  1  0
  6 14  4  0
  7  8  1  0
  8  9  4  0
  8 12  4  0
  9 10  4  0
 10 11  4  0
 11 12  4  0
 12 13  1  0
 13 14  1  0
 13 15  1  6
 15 16  4  0
 15 20  4  0
 16 17  4  0
 17 18  4  0
 17 21  1  0
 18 19  4  0
 19 20  4  0
 23 24  4  0
 24 25  4  0
 25 26  1  0
 26 27  1  0
 27 28  1  0
 27 29  1  0
 29 30  2  0
 29 31  1  0
 31 32  1  0
 32 33  4  0
 33 34  1  0
 33 35  4  0
 35 36  4  0
 36 37  4  0
 37 38  4  0
 38 39  1  0
 39 40  1  0
 39 41  1  0
 25 42  4  0
 42 43  1  0
 43 44  1  0
 44 45  2  0
 44 46  1  0
 38 32  4  0
  2 23  4  0
  2 42  4  0
M  CHG  1  46  -1
M  END
$$$$

     RDKit          3D

 46 51  0  0  0  0  0  0  0  0999 V2000
   -7.6410    4.9930    6.8080 C   0  0  0  0  0  0  0  0  0  1  0  0
   -7.7310    4.0530    5.7140 C   0  0  0  0  0  0  0  0  0  2  0  0
   -6.4520    5.6300    6.8680 N   0  0  0  0  0  0  0  0  0  0  0  0
   -6.2260    6.5240    7.8670 N   0  0  0  0  0  0  0  0  0  0  0  0
   -7.1930    6.7500    8.7820 C   0  0  0  0  0  0  0  0  0  0  0  0
   -8.4240    6.1170    8.7580 C   0  0  0  0  0  0  0  0  0  0  0  0
   -9.3950    6.3570    9.7450 N   0  0  0  0  0  0  0  0  0  0  0  0
  -10.5620    5.6840    9.7600 C   0  0  0  0  0  0  0  0  0  0  0  0
  -11.5770    5.6820   10.5960 N   0  0  0  0  0  0  0  0  0  0  0  0
  -12.4690    4.7490   10.1080 N   0  0  0  0  0  0  0  0  0  0  0  0
  -12.0160    4.1880    8.9920 N   0  0  0  0  0  0  0  0  0  0  0  0
  -10.8400    4.7900    8.7610 N   0  0  0  0  0  0  0  0  0  0  0  0
   -9.9950    4.4790    7.6090 C   0  0  0  0  0  0  0  0  0  0  0  0
   -8.6630    5.2070    7.7200 C   0  0  0  0  0  0  0  0  0  0  0  0
  -10.7490    4.8610    6.3730 C   0  0  0  0  0  0  0  0  0  0  0  0
  -11.0350    6.2020    6.1170 C   0  0  0  0  0  0  0  0  0  0  0  0
  -11.7370    6.5580    4.9650 C   0  0  0  0  0  0  0  0  0  0  0  0
  -12.1550    5.5730    4.0710 C   0  0  0  0  0  0  0  0  0  0  0  0
  -11.8700    4.2310    4.3270 C   0  0  0  0  0  0  0  0  0  0  0  0
  -11.1660    3.8760    5.4790 C   0  0  0  0  0  0  0  0  0  0  0  0
  -12.0160    7.8660    4.7150 O   0  0  0  0  0  0  0  0  0  0  0  0
   -6.8990    7.6510    9.7710 O   0  0  0  0  0  0  0  0  0  0  0  0
   -6.9205    2.9953    5.4727 N   0  0  0  0  0  0  0  0  0  0  0  0
   -7.3557    2.3325    4.4103 N   0  0  0  0  0  0  0  0  0  0  0  0
   -8.4672    2.9614    3.9841 C   0  0  0  0  0  0  0  0  0  0  0  0
   -9.4176    2.4218    2.5576 S   0  0  0  0  0  0  0  0  0  0  0  0
   -8.2251    3.0208    1.3059 C   0  0  0  0  0  0  0  0  0  0  0  0
   -8.1449    4.5455    1.2841 C   0  0  0  0  0  0  0  0  0  0  0  0
   -8.6405    2.5000   -0.0459 C   0  0  0  0  0  0  0  0  0  0  0  0
   -9.7101    2.9138   -0.5664 O   0  0  0  0  0  0  0  0  0  0  0  0
   -7.8480    1.5367   -0.7578 N   0  0  0  0  0  0  0  0  0  0  0  0
   -6.9539    0.6314   -0.0929 C   0  0  0  0  0  0  0  0  0  0  0  0
   -7.4534   -0.5743    0.4565 C   0  0  0  0  0  0  0  0  0  0  0  0
   -8.9069   -0.9441    0.3917 C   0  0  0  0  0  0  0  0  0  0  0  0
   -6.5631   -1.4919    1.0293 C   0  0  0  0  0  0  0  0  0  0  0  0
   -5.1944   -1.2288    1.0597 C   0  0  0  0  0  0  0  0  0  0  0  0
   -4.6948   -0.0394    0.5344 C   0  0  0  0  0  0  0  0  0  0  0  0
   -5.5671    0.9221   -0.0227 C   0  0  0  0  0  0  0  0  0  0  0  0
   -5.0038    2.2149   -0.6005 C   0  0  0  0  0  0  0  0  0  0  0  0
   -4.0583    2.9245    0.3841 C   0  0  0  0  0  0  0  0  0  0  0  0
   -4.3048    1.9429   -1.9377 C   0  0  0  0  0  0  0  0  0  0  0  0
   -8.7719    4.0203    4.7642 N   0  0  0  0  0  0  0  0  0  0  0  0
   -9.8711    4.9816    4.5933 C   0  0  0  0  0  0  0  0  0  0  0  0
   -9.3885    6.3089    4.0837 C   0  0  0  0  0  0  0  0  0  0  0  0
   -8.1839    6.6552    4.2065 O   0  0  0  0  0  0  0  0  0  0  0  0
  -10.2944    7.1885    3.5056 O   0  0  0  0  0  0  0  0  0  0  0  0
  1  3  4  0
  1 14  4  0
  1  2  1  0
  3  4  4  0
  4  5  4  0
  5  6  4  0
  5 22  1  0
  6  7  1  0
  6 14  4  0
  7  8  1  0
  8  9  4  0
  8 12  4  0
  9 10  4  0
 10 11  4  0
 11 12  4  0
 12 13  1  0
 13 14  1  0
 13 15  1  6
 15 16  4  0
 15 20  4  0
 16 17  4  0
 17 18  4  0
 17 21  1  0
 18 19  4  0
 19 20  4  0
 23 24  4  0
 24 25  4  0
 25 26  1  0
 26 27  1  0
 27 28  1  0
 27 29  1  0
 29 30  2  0
 29 31  1  0
 31 32  1  0
 32 33  4  0
 33 34  1  0
 33 35  4  0
 35 36  4  0
 36 37  4  0
 37 38  4  0
 38 39  1  0
 39 40  1  0
 39 41  1  0
 25 42  4  0
 42 43  1  0
 43 44  1  0
 44 45  2  0
 44 46  1  0
 38 32  4  0
  2 23  4  0
  2 42  4  0
M  CHG  1  46  -1
M  END
$$$$

     RDKit          3D

 37 43  0  0  0  0  0  0  0  0999 V2000
   -7.6410    4.9930    6.8080 C   0  0  0  0  0  0  0  0  0  1  0  0
   -7.7310    4.0530    5.7140 C   0  0  0  0  0  0  0  0  0  2  0  0
   -6.4520    5.6300    6.8680 N   0  0  0  0  0  0  0  0  0  0  0  0
   -6.2260    6.5240    7.8670 N   0  0  0  0  0  0  0  0  0  0  0  0
   -7.1930    6.7500    8.7820 C   0  0  0  0  0  0  0  0  0  0  0  0
   -8.4240    6.1170    8.7580 C   0  0  0  0  0  0  0  0  0  0  0  0
   -9.3950    6.3570    9.7450 N   0  0  0  0  0  0  0  0  0  0  0  0
  -10.5620    5.6840    9.7600 C   0  0  0  0  0  0  0  0  0  0  0  0
  -11.5770    5.6820   10.5960 N   0  0  0  0  0  0  0  0  0  0  0  0
  -12.4690    4.7490   10.1080 N   0  0  0  0  0  0  0  0  0  0  0  0
  -12.0160    4.1880    8.9920 N   0  0  0  0  0  0  0  0  0  0  0  0
  -10.8400    4.7900    8.7610 N   0  0  0  0  0  0  0  0  0  0  0  0
   -9.9950    4.4790    7.6090 C   0  0  0  0  0  0  0  0  0  0  0  0
   -8.6630    5.2070    7.7200 C   0  0  0  0  0  0  0  0  0  0  0  0
  -10.7490    4.8610    6.3730 C   0  0  0  0  0  0  0  0  0  0  0  0
  -11.0350    6.2020    6.1170 C   0  0  0  0  0  0  0  0  0  0  0  0
  -11.7370    6.5580    4.9650 C   0  0  0  0  0  0  0  0  0  0  0  0
  -12.1550    5.5730    4.0710 C   0  0  0  0  0  0  0  0  0  0  0  0
  -11.8700    4.2310    4.3270 C   0  0  0  0  0  0  0  0  0  0  0  0
  -11.1660    3.8760    5.4790 C   0  0  0  0  0  0  0  0  0  0  0  0
  -12.0160    7.8660    4.7150 O   0  0  0  0  0  0  0  0  0  0  0  0
   -6.8990    7.6510    9.7710 O   0  0  0  0  0  0  0  0  0  0  0  0
   -6.9125    2.9790    5.3198 C   0  0  0  0  0  0  0  0  0  1  0  0
   -5.6777    2.5543    6.0156 C   0  0  0  0  0  0  0  0  0  2  0  0
   -4.5858    2.0818    5.2680 C   0  0  0  0  0  0  0  0  0  0  0  0
   -3.4147    1.6688    5.9107 C   0  0  0  0  0  0  0  0  0  0  0  0
   -3.3277    1.7120    7.3042 C   0  0  0  0  0  0  0  0  0  0  0  0
   -4.4150    2.1607    8.0584 C   0  0  0  0  0  0  0  0  0  0  0  0
   -4.3356    2.1869    9.4116 F   0  0  0  0  0  0  0  0  0  0  0  0
   -5.5884    2.5738    7.4195 C   0  0  0  0  0  0  0  0  0  0  0  0
   -7.3645    2.3709    4.1958 N   0  0  0  0  0  0  0  0  0  0  0  0
   -8.5033    3.0325    3.9095 C   0  0  0  0  0  0  0  0  0  0  0  0
   -9.3311    2.7835    2.8166 C   0  0  0  0  0  0  0  0  0  0  0  0
  -10.4598    3.6009    2.6522 C   0  0  0  0  0  0  0  0  0  0  0  0
  -10.7237    4.6390    3.5648 C   0  0  0  0  0  0  0  0  0  0  0  0
   -9.8546    4.8465    4.6456 C   0  0  0  0  0  0  0  0  0  0  0  0
   -8.7842    4.0172    4.7818 N   0  0  0  0  0  0  0  0  0  0  0  0
  1  3  4  0
  1 14  4  0
  1  2  1  0
  3  4  4  0
  4  5  4  0
  5  6  4  0
  5 22  1  0
  6  7  1  0
  6 14  4  0
  7  8  1  0
  8  9  4  0
  8 12  4  0
  9 10  4  0
 10 11  4  0
 11 12  4  0
 12 13  1  0
 13 14  1  0
 13 15  1  6
 15 16  4  0
 15 20  4  0
 16 17  4  0
 17 18  4  0
 17 21  1  0
 18 19  4  0
 19 20  4  0
 23 24  1  0
 24 25  4  0
 25 26  4  0
 26 27  4  0
 27 28  4  0
 28 29  1  0
 28 30  4  0
 23 31  4  0
 31 32  4  0
 32 33  4  0
 33 34  4  0
 34 35  4  0
 35 36  4  0
 36 37  4  0
 30 24  4  0
 37 32  4  0
  2 23  4  0
  2 37  4  0
M  END
$$$$

     RDKit          3D

 40 46  0  0  0  0  0  0  0  0999 V2000
   -7.6410    4.9930    6.8080 C   0  0  0  0  0  0  0  0  0  1  0  0
   -7.7310    4.0530    5.7140 C   0  0  0  0  0  0  0  0  0  2  0  0
   -6.4520    5.6300    6.8680 N   0  0  0  0  0  0  0  0  0  0  0  0
   -6.2260    6.5240    7.8670 N   0  0  0  0  0  0  0  0  0  0  0  0
   -7.1930    6.7500    8.7820 C   0  0  0  0  0  0  0  0  0  0  0  0
   -8.4240    6.1170    8.7580 C   0  0  0  0  0  0  0  0  0  0  0  0
   -9.3950    6.3570    9.7450 N   0  0  0  0  0  0  0  0  0  0  0  0
  -10.5620    5.6840    9.7600 C   0  0  0  0  0  0  0  0  0  0  0  0
  -11.5770    5.6820   10.5960 N   0  0  0  0  0  0  0  0  0  0  0  0
  -12.4690    4.7490   10.1080 N   0  0  0  0  0  0  0  0  0  0  0  0
  -12.0160    4.1880    8.9920 N   0  0  0  0  0  0  0  0  0  0  0  0
  -10.8400    4.7900    8.7610 N   0  0  0  0  0  0  0  0  0  0  0  0
   -9.9950    4.4790    7.6090 C   0  0  0  0  0  0  0  0  0  0  0  0
   -8.6630    5.2070    7.7200 C   0  0  0  0  0  0  0  0  0  0  0  0
  -10.7490    4.8610    6.3730 C   0  0  0  0  0  0  0  0  0  0  0  0
  -11.0350    6.2020    6.1170 C   0  0  0  0  0  0  0  0  0  0  0  0
  -11.7370    6.5580    4.9650 C   0  0  0  0  0  0  0  0  0  0  0  0
  -12.1550    5.5730    4.0710 C   0  0  0  0  0  0  0  0  0  0  0  0
  -11.8700    4.2310    4.3270 C   0  0  0  0  0  0  0  0  0  0  0  0
  -11.1660    3.8760    5.4790 C   0  0  0  0  0  0  0  0  0  0  0  0
  -12.0160    7.8660    4.7150 O   0  0  0  0  0  0  0  0  0  0  0  0
   -6.8990    7.6510    9.7710 O   0  0  0  0  0  0  0  0  0  0  0  0
   -6.8454    3.0979    5.3593 N   0  0  0  0  0  0  0  0  0  0  0  0
   -7.3153    2.3498    4.3721 N   0  0  0  0  0  0  0  0  0  0  0  0
   -6.5609    1.2910    3.7485 C   0  0  0  0  0  0  0  0  0  0  0  0
   -5.1702    1.2059    3.9485 C   0  0  0  0  0  0  0  0  0  0  0  0
   -4.4278    0.1831    3.3504 C   0  0  0  0  0  0  0  0  0  0  0  0
   -5.0636   -0.7688    2.5514 C   0  0  0  0  0  0  0  0  0  0  0  0
   -6.4436   -0.7013    2.3503 C   0  0  0  0  0  0  0  0  0  0  0  0
   -7.1913    0.3201    2.9447 C   0  0  0  0  0  0  0  0  0  0  0  0
   -8.5593    2.7622    4.0473 C   0  0  0  0  0  0  0  0  0  0  0  0
   -8.8999    3.8208    4.8674 C   0  0  0  0  0  0  0  0  0  0  0  0
  -10.1205    4.6477    4.7677 C   0  0  0  0  0  0  0  0  0  0  0  0
  -10.1234    5.8167    5.2394 O   0  0  0  0  0  0  0  0  0  0  0  0
  -11.2935    4.1395    4.1163 N   0  0  0  0  0  0  0  0  0  0  0  0
  -12.4816    4.9712    3.9318 C   0  0  0  0  0  0  0  0  0  0  0  0
  -13.5891    4.1763    3.2285 C   0  0  0  0  0  0  0  0  0  0  0  0
  -13.5144    4.1745    1.7045 C   0  0  0  0  0  0  0  0  0  0  0  0
  -14.5712    5.0126    2.4166 C   0  0  0  0  0  0  0  0  0  0  0  0
  -15.9929    4.4564    2.3416 C   0  0  0  0  0  0  0  0  0  0  0  0
  1  3  4  0
  1 14  4  0
  1  2  1  0
  3  4  4  0
  4  5  4  0
  5  6  4  0
  5 22  1  0
  6  7  1  0
  6 14  4  0
  7  8  1  0
  8  9  4  0
  8 12  4  0
  9 10  4  0
 10 11  4  0
 11 12  4  0
 12 13  1  0
 13 14  1  0
 13 15  1  6
 15 16  4  0
 15 20  4  0
 16 17  4  0
 17 18  4  0
 17 21  1  0
 18 19  4  0
 19 20  4  0
 23 24  4  0
 24 25  1  0
 25 26  4  0
 26 27  4  0
 27 28  4  0
 28 29  4  0
 29 30  4  0
 24 31  4  0
 31 32  4  0
 32 33  1  0
 33 34  2  0
 33 35  1  0
 35 36  1  0
 36 37  1  0
 37 38  1  0
 38 39  1  0
 39 40  1  0
 39 37  1  0
 30 25  4  0
  2 23  4  0
  2 32  4  0
M  END
$$$$

     RDKit          3D

 40 46  0  0  0  0  0  0  0  0999 V2000
   -7.6410    4.9930    6.8080 C   0  0  0  0  0  0  0  0  0  1  0  0
   -7.7310    4.0530    5.7140 C   0  0  0  0  0  0  0  0  0  2  0  0
   -6.4520    5.6300    6.8680 N   0  0  0  0  0  0  0  0  0  0  0  0
   -6.2260    6.5240    7.8670 N   0  0  0  0  0  0  0  0  0  0  0  0
   -7.1930    6.7500    8.7820 C   0  0  0  0  0  0  0  0  0  0  0  0
   -8.4240    6.1170    8.7580 C   0  0  0  0  0  0  0  0  0  0  0  0
   -9.3950    6.3570    9.7450 N   0  0  0  0  0  0  0  0  0  0  0  0
  -10.5620    5.6840    9.7600 C   0  0  0  0  0  0  0  0  0  0  0  0
  -11.5770    5.6820   10.5960 N   0  0  0  0  0  0  0  0  0  0  0  0
  -12.4690    4.7490   10.1080 N   0  0  0  0  0  0  0  0  0  0  0  0
  -12.0160    4.1880    8.9920 N   0  0  0  0  0  0  0  0  0  0  0  0
  -10.8400    4.7900    8.7610 N   0  0  0  0  0  0  0  0  0  0  0  0
   -9.9950    4.4790    7.6090 C   0  0  0  0  0  0  0  0  0  0  0  0
   -8.6630    5.2070    7.7200 C   0  0  0  0  0  0  0  0  0  0  0  0
  -10.7490    4.8610    6.3730 C   0  0  0  0  0  0  0  0  0  0  0  0
  -11.0350    6.2020    6.1170 C   0  0  0  0  0  0  0  0  0  0  0  0
  -11.7370    6.5580    4.9650 C   0  0  0  0  0  0  0  0  0  0  0  0
  -12.1550    5.5730    4.0710 C   0  0  0  0  0  0  0  0  0  0  0  0
  -11.8700    4.2310    4.3270 C   0  0  0  0  0  0  0  0  0  0  0  0
  -11.1660    3.8760    5.4790 C   0  0  0  0  0  0  0  0  0  0  0  0
  -12.0160    7.8660    4.7150 O   0  0  0  0  0  0  0  0  0  0  0  0
   -6.8990    7.6510    9.7710 O   0  0  0  0  0  0  0  0  0  0  0  0
   -6.8815    3.0512    5.3999 N   0  0  0  0  0  0  0  0  0  0  0  0
   -7.3384    2.3419    4.3794 N   0  0  0  0  0  0  0  0  0  0  0  0
   -6.6365    1.2131    3.8186 C   0  0  0  0  0  0  0  0  0  0  0  0
   -6.9827    0.6865    2.5566 C   0  0  0  0  0  0  0  0  0  0  0  0
   -6.3063   -0.4242    2.0430 C   0  0  0  0  0  0  0  0  0  0  0  0
   -5.2694   -1.0132    2.7698 C   0  0  0  0  0  0  0  0  0  0  0  0
   -4.9009   -0.4876    4.0072 C   0  0  0  0  0  0  0  0  0  0  0  0
   -5.5790    0.6181    4.5321 C   0  0  0  0  0  0  0  0  0  0  0  0
   -8.5385    2.8270    3.9978 C   0  0  0  0  0  0  0  0  0  0  0  0
   -8.8695    3.8847    4.8233 C   0  0  0  0  0  0  0  0  0  0  0  0
  -10.0379    4.7860    4.7111 C   0  0  0  0  0  0  0  0  0  0  0  0
   -9.9057    5.9927    5.0506 O   0  0  0  0  0  0  0  0  0  0  0  0
  -11.3251    4.3411    4.2550 N   0  0  0  0  0  0  0  0  0  0  0  0
  -11.7138    2.9337    4.1574 C   0  0  0  0  0  0  0  0  0  0  0  0
  -13.2306    2.7870    4.3777 C   0  0  0  0  0  0  0  0  0  0  0  0
  -14.0878    2.7848    3.1144 C   0  0  0  0  0  0  0  0  0  0  0  0
  -13.9201    1.4976    3.9205 C   0  0  0  0  0  0  0  0  0  0  0  0
  -13.0789    0.4018    3.2487 C   0  0  0  0  0  0  0  0  0  0  0  0
  1  3  4  0
  1 14  4  0
  1  2  1  0
  3  4  4  0
  4  5  4  0
  5  6  4  0
  5 22  1  0
  6  7  1  0
  6 14  4  0
  7  8  1  0
  8  9  4  0
  8 12  4  0
  9 10  4  0
 10 11  4  0
 11 12  4  0
 12 13  1  0
 13 14  1  0
 13 15  1  6
 15 16  4  0
 15 20  4  0
 16 17  4  0
 17 18  4  0
 17 21  1  0
 18 19  4  0
 19 20  4  0
 23 24  4  0
 24 25  1  0
 25 26  4  0
 26 27  4  0
 27 28  4  0
 28 29  4  0
 29 30  4  0
 24 31  4  0
 31 32  4  0
 32 33  1  0
 33 34  2  0
 33 35  1  0
 35 36  1  0
 36 37  1  0
 37 38  1  0
 38 39  1  0
 39 40  1  0
 39 37  1  0
 30 25  4  0
  2 23  4  0
  2 32  4  0
M  END
$$$$

     RDKit          3D

 36 41  0  0  0  0  0  0  0  0999 V2000
   -7.6410    4.9930    6.8080 C   0  0  0  0  0  0  0  0  0  1  0  0
   -7.7310    4.0530    5.7140 C   0  0  0  0  0  0  0  0  0  2  0  0
   -6.4520    5.6300    6.8680 N   0  0  0  0  0  0  0  0  0  0  0  0
   -6.2260    6.5240    7.8670 N   0  0  0  0  0  0  0  0  0  0  0  0
   -7.1930    6.7500    8.7820 C   0  0  0  0  0  0  0  0  0  0  0  0
   -8.4240    6.1170    8.7580 C   0  0  0  0  0  0  0  0  0  0  0  0
   -9.3950    6.3570    9.7450 N   0  0  0  0  0  0  0  0  0  0  0  0
  -10.5620    5.6840    9.7600 C   0  0  0  0  0  0  0  0  0  0  0  0
  -11.5770    5.6820   10.5960 N   0  0  0  0  0  0  0  0  0  0  0  0
  -12.4690    4.7490   10.1080 N   0  0  0  0  0  0  0  0  0  0  0  0
  -12.0160    4.1880    8.9920 N   0  0  0  0  0  0  0  0  0  0  0  0
  -10.8400    4.7900    8.7610 N   0  0  0  0  0  0  0  0  0  0  0  0
   -9.9950    4.4790    7.6090 C   0  0  0  0  0  0  0  0  0  0  0  0
   -8.6630    5.2070    7.7200 C   0  0  0  0  0  0  0  0  0  0  0  0
  -10.7490    4.8610    6.3730 C   0  0  0  0  0  0  0  0  0  0  0  0
  -11.0350    6.2020    6.1170 C   0  0  0  0  0  0  0  0  0  0  0  0
  -11.7370    6.5580    4.9650 C   0  0  0  0  0  0  0  0  0  0  0  0
  -12.1550    5.5730    4.0710 C   0  0  0  0  0  0  0  0  0  0  0  0
  -11.8700    4.2310    4.3270 C   0  0  0  0  0  0  0  0  0  0  0  0
  -11.1660    3.8760    5.4790 C   0  0  0  0  0  0  0  0  0  0  0  0
  -12.0160    7.8660    4.7150 O   0  0  0  0  0  0  0  0  0  0  0  0
   -6.8990    7.6510    9.7710 O   0  0  0  0  0  0  0  0  0  0  0  0
   -6.8330    2.9891    5.5075 C   0  0  0  0  0  0  0  0  0  0  0  0
   -6.9729    2.0590    4.4742 C   0  0  0  0  0  0  0  0  0  0  0  0
   -8.0677    2.1281    3.5962 C   0  0  0  0  0  0  0  0  0  0  0  0
   -8.2087    1.1850    2.5163 N   0  0  0  0  0  0  0  0  0  0  0  0
   -8.7423    1.4869    1.1915 C   0  0  0  0  0  0  0  0  0  0  0  0
   -8.4937    0.2043    0.3464 C   0  0  0  0  0  0  0  0  0  0  0  0
   -9.7892   -0.3605   -0.2470 C   0  0  0  0  0  0  0  0  0  0  0  0
   -9.5124   -1.4860   -1.0357 O   0  0  0  0  0  0  0  0  0  0  0  0
   -7.9135   -0.7347    1.2467 O   0  0  0  0  0  0  0  0  0  0  0  0
   -7.7615   -0.1577    2.4850 C   0  0  0  0  0  0  0  0  0  0  0  0
   -7.3235   -0.7819    3.4873 O   0  0  0  0  0  0  0  0  0  0  0  0
   -9.0087    3.1572    3.7629 C   0  0  0  0  0  0  0  0  0  0  0  0
   -8.8744    4.0854    4.8002 C   0  0  0  0  0  0  0  0  0  0  0  0
   -9.7892    5.0813    4.9170 F   0  0  0  0  0  0  0  0  0  0  0  0
  1  3  4  0
  1 14  4  0
  1  2  1  0
  3  4  4  0
  4  5  4  0
  5  6  4  0
  5 22  1  0
  6  7  1  0
  6 14  4  0
  7  8  1  0
  8  9  4  0
  8 12  4  0
  9 10  4  0
 10 11  4  0
 11 12  4  0
 12 13  1  0
 13 14  1  0
 13 15  1  6
 15 16  4  0
 15 20  4  0
 16 17  4  0
 17 18  4  0
 17 21  1  0
 18 19  4  0
 19 20  4  0
 23 24  4  0
 24 25  4  0
 25 26  1  0
 26 27  1  0
 27 28  1  0
 28 29  1  0
 29 30  1  0
 28 31  1  0
 31 32  1  0
 32 33  2  0
 25 34  4  0
 34 35  4  0
 35 36  1  0
 32 26  1  0
  2 23  4  0
  2 35  4  0
M  END
$$$$

     RDKit          3D

 36 41  0  0  0  0  0  0  0  0999 V2000
   -7.6410    4.9930    6.8080 C   0  0  0  0  0  0  0  0  0  1  0  0
   -7.7310    4.0530    5.7140 C   0  0  0  0  0  0  0  0  0  2  0  0
   -6.4520    5.6300    6.8680 N   0  0  0  0  0  0  0  0  0  0  0  0
   -6.2260    6.5240    7.8670 N   0  0  0  0  0  0  0  0  0  0  0  0
   -7.1930    6.7500    8.7820 C   0  0  0  0  0  0  0  0  0  0  0  0
   -8.4240    6.1170    8.7580 C   0  0  0  0  0  0  0  0  0  0  0  0
   -9.3950    6.3570    9.7450 N   0  0  0  0  0  0  0  0  0  0  0  0
  -10.5620    5.6840    9.7600 C   0  0  0  0  0  0  0  0  0  0  0  0
  -11.5770    5.6820   10.5960 N   0  0  0  0  0  0  0  0  0  0  0  0
  -12.4690    4.7490   10.1080 N   0  0  0  0  0  0  0  0  0  0  0  0
  -12.0160    4.1880    8.9920 N   0  0  0  0  0  0  0  0  0  0  0  0
  -10.8400    4.7900    8.7610 N   0  0  0  0  0  0  0  0  0  0  0  0
   -9.9950    4.4790    7.6090 C   0  0  0  0  0  0  0  0  0  0  0  0
   -8.6630    5.2070    7.7200 C   0  0  0  0  0  0  0  0  0  0  0  0
  -10.7490    4.8610    6.3730 C   0  0  0  0  0  0  0  0  0  0  0  0
  -11.0350    6.2020    6.1170 C   0  0  0  0  0  0  0  0  0  0  0  0
  -11.7370    6.5580    4.9650 C   0  0  0  0  0  0  0  0  0  0  0  0
  -12.1550    5.5730    4.0710 C   0  0  0  0  0  0  0  0  0  0  0  0
  -11.8700    4.2310    4.3270 C   0  0  0  0  0  0  0  0  0  0  0  0
  -11.1660    3.8760    5.4790 C   0  0  0  0  0  0  0  0  0  0  0  0
  -12.0160    7.8660    4.7150 O   0  0  0  0  0  0  0  0  0  0  0  0
   -6.8990    7.6510    9.7710 O   0  0  0  0  0  0  0  0  0  0  0  0
   -6.8358    2.9858    5.5114 C   0  0  0  0  0  0  0  0  0  0  0  0
   -6.9771    2.0537    4.4803 C   0  0  0  0  0  0  0  0  0  0  0  0
   -8.0626    2.1299    3.5921 C   0  0  0  0  0  0  0  0  0  0  0  0
   -8.2049    1.1579    2.5370 N   0  0  0  0  0  0  0  0  0  0  0  0
   -7.7758   -0.2358    2.6055 C   0  0  0  0  0  0  0  0  0  0  0  0
   -8.2891   -0.8907    1.2901 C   0  0  0  0  0  0  0  0  0  0  0  0
   -9.3112   -2.0047    1.5458 C   0  0  0  0  0  0  0  0  0  0  0  0
   -8.7216   -3.0668    2.2461 O   0  0  0  0  0  0  0  0  0  0  0  0
   -8.9028    0.1653    0.5586 O   0  0  0  0  0  0  0  0  0  0  0  0
   -8.8405    1.3317    1.2838 C   0  0  0  0  0  0  0  0  0  0  0  0
   -9.2520    2.4376    0.8448 O   0  0  0  0  0  0  0  0  0  0  0  0
   -9.0150    3.1487    3.7699 C   0  0  0  0  0  0  0  0  0  0  0  0
   -8.8769    4.0813    4.8028 C   0  0  0  0  0  0  0  0  0  0  0  0
   -9.7953    5.0738    4.9216 F   0  0  0  0  0  0  0  0  0  0  0  0
  1  3  4  0
  1 14  4  0
  1  2  1  0
  3  4  4  0
  4  5  4  0
  5  6  4  0
  5 22  1  0
  6  7  1  0
  6 14  4  0
  7  8  1  0
  8  9  4  0
  8 12  4  0
  9 10  4  0
 10 11  4  0
 11 12  4  0
 12 13  1  0
 13 14  1  0
 13 15  1  6
 15 16  4  0
 15 20  4  0
 16 17  4  0
 17 18  4  0
 17 21  1  0
 18 19  4  0
 19 20  4  0
 23 24  4  0
 24 25  4  0
 25 26  1  0
 26 27  1  0
 27 28  1  0
 28 29  1  0
 29 30  1  0
 28 31  1  0
 31 32  1  0
 32 33  2  0
 25 34  4  0
 34 35  4  0
 35 36  1  0
 32 26  1  0
  2 23  4  0
  2 35  4  0
M  END
$$$$

     RDKit          3D

 44 51  0  0  0  0  0  0  0  0999 V2000
   -7.6410    4.9930    6.8080 C   0  0  0  0  0  0  0  0  0  1  0  0
   -7.7310    4.0530    5.7140 C   0  0  0  0  0  0  0  0  0  2  0  0
   -6.4520    5.6300    6.8680 N   0  0  0  0  0  0  0  0  0  0  0  0
   -6.2260    6.5240    7.8670 N   0  0  0  0  0  0  0  0  0  0  0  0
   -7.1930    6.7500    8.7820 C   0  0  0  0  0  0  0  0  0  0  0  0
   -8.4240    6.1170    8.7580 C   0  0  0  0  0  0  0  0  0  0  0  0
   -9.3950    6.3570    9.7450 N   0  0  0  0  0  0  0  0  0  0  0  0
  -10.5620    5.6840    9.7600 C   0  0  0  0  0  0  0  0  0  0  0  0
  -11.5770    5.6820   10.5960 N   0  0  0  0  0  0  0  0  0  0  0  0
  -12.4690    4.7490   10.1080 N   0  0  0  0  0  0  0  0  0  0  0  0
  -12.0160    4.1880    8.9920 N   0  0  0  0  0  0  0  0  0  0  0  0
  -10.8400    4.7900    8.7610 N   0  0  0  0  0  0  0  0  0  0  0  0
   -9.9950    4.4790    7.6090 C   0  0  0  0  0  0  0  0  0  0  0  0
   -8.6630    5.2070    7.7200 C   0  0  0  0  0  0  0  0  0  0  0  0
  -10.7490    4.8610    6.3730 C   0  0  0  0  0  0  0  0  0  0  0  0
  -11.0350    6.2020    6.1170 C   0  0  0  0  0  0  0  0  0  0  0  0
  -11.7370    6.5580    4.9650 C   0  0  0  0  0  0  0  0  0  0  0  0
  -12.1550    5.5730    4.0710 C   0  0  0  0  0  0  0  0  0  0  0  0
  -11.8700    4.2310    4.3270 C   0  0  0  0  0  0  0  0  0  0  0  0
  -11.1660    3.8760    5.4790 C   0  0  0  0  0  0  0  0  0  0  0  0
  -12.0160    7.8660    4.7150 O   0  0  0  0  0  0  0  0  0  0  0  0
   -6.8990    7.6510    9.7710 O   0  0  0  0  0  0  0  0  0  0  0  0
   -8.5833    4.3388    4.5559 C   0  0  0  0  0  0  0  0  0  0  0  0
   -9.4417    5.5513    4.5434 C   0  0  0  0  0  0  0  0  0  0  0  0
  -10.6080    5.4700    5.0194 O   0  0  0  0  0  0  0  0  0  0  0  0
   -9.0284    6.7550    3.8666 N   0  0  0  0  0  0  0  0  0  0  0  0
   -7.5843    7.0176    3.6733 C   0  0  0  0  0  0  0  0  0  0  0  0
   -7.3206    8.3601    2.9904 C   0  0  0  0  0  0  0  0  0  0  0  0
   -8.2726    8.6044    1.9862 O   0  0  0  0  0  0  0  0  0  0  0  0
   -9.5195    8.8665    2.6004 C   0  0  0  0  0  0  0  0  0  0  0  0
  -10.0772    7.6097    3.2818 C   0  0  0  0  0  0  0  0  0  0  0  0
   -8.5402    3.5169    3.4015 C   0  0  0  0  0  0  0  0  0  0  0  0
   -9.3739    3.8276    2.1843 C   0  0  0  0  0  0  0  0  0  0  0  0
   -7.7256    2.4270    3.3712 N   0  0  0  0  0  0  0  0  0  0  0  0
   -6.9768    2.0969    4.4476 C   0  0  0  0  0  0  0  0  0  0  0  0
   -5.9585    0.7714    4.5476 S   0  0  0  0  0  0  0  0  0  0  0  0
   -5.5427    1.0673    6.1460 C   0  0  0  0  0  0  0  0  0  0  0  0
   -6.1798    2.2198    6.6254 C   0  0  0  0  0  0  0  0  0  0  0  0
   -6.9963    2.8246    5.6289 C   0  0  0  0  0  0  0  0  0  0  0  0
   -6.1916    2.5264    8.1052 C   0  0  0  0  0  0  0  0  0  0  0  0
   -5.0864    1.7782    8.8803 C   0  0  0  0  0  0  0  0  0  0  0  0
   -4.9255    0.3070    8.4451 C   0  0  0  0  0  0  0  0  0  0  0  0
   -6.1597   -0.5350    8.8018 C   0  0  0  0  0  0  0  0  0  0  0  0
   -4.5990    0.2267    6.9434 C   0  0  0  0  0  0  0  0  0  0  0  0
  1  3  4  0
  1 14  4  0
  1  2  1  0
  3  4  4  0
  4  5  4  0
  5  6  4  0
  5 22  1  0
  6  7  1  0
  6 14  4  0
  7  8  1  0
  8  9  4  0
  8 12  4  0
  9 10  4  0
 10 11  4  0
 11 12  4  0
 12 13  1  0
 13 14  1  0
 13 15  1  6
 15 16  4  0
 15 20  4  0
 16 17  4  0
 17 18  4  0
 17 21  1  0
 18 19  4  0
 19 20  4  0
 23 24  1  0
 24 25  2  0
 24 26  1  0
 26 27  1  0
 27 28  1  0
 28 29  1  0
 29 30  1  0
 30 31  1  0
 23 32  4  0
 32 33  1  0
 32 34  4  0
 34 35  4  0
 35 36  4  0
 36 37  4  0
 37 38  4  0
 38 39  4  0
 38 40  1  0
 40 41  1  0
 41 42  1  0
 42 43  1  0
 42 44  1  0
 31 26  1  0
 39 35  4  0
 44 37  1  0
  2 23  4  0
  2 39  4  0
M  END
$$$$

     RDKit          3D

 41 47  0  0  0  0  0  0  0  0999 V2000
   -7.6410    4.9930    6.8080 C   0  0  0  0  0  0  0  0  0  1  0  0
   -7.7310    4.0530    5.7140 C   0  0  0  0  0  0  0  0  0  2  0  0
   -6.4520    5.6300    6.8680 N   0  0  0  0  0  0  0  0  0  0  0  0
   -6.2260    6.5240    7.8670 N   0  0  0  0  0  0  0  0  0  0  0  0
   -7.1930    6.7500    8.7820 C   0  0  0  0  0  0  0  0  0  0  0  0
   -8.4240    6.1170    8.7580 C   0  0  0  0  0  0  0  0  0  0  0  0
   -9.3950    6.3570    9.7450 N   0  0  0  0  0  0  0  0  0  0  0  0
  -10.5620    5.6840    9.7600 C   0  0  0  0  0  0  0  0  0  0  0  0
  -11.5770    5.6820   10.5960 N   0  0  0  0  0  0  0  0  0  0  0  0
  -12.4690    4.7490   10.1080 N   0  0  0  0  0  0  0  0  0  0  0  0
  -12.0160    4.1880    8.9920 N   0  0  0  0  0  0  0  0  0  0  0  0
  -10.8400    4.7900    8.7610 N   0  0  0  0  0  0  0  0  0  0  0  0
   -9.9950    4.4790    7.6090 C   0  0  0  0  0  0  0  0  0  0  0  0
   -8.6630    5.2070    7.7200 C   0  0  0  0  0  0  0  0  0  0  0  0
  -10.7490    4.8610    6.3730 C   0  0  0  0  0  0  0  0  0  0  0  0
  -11.0350    6.2020    6.1170 C   0  0  0  0  0  0  0  0  0  0  0  0
  -11.7370    6.5580    4.9650 C   0  0  0  0  0  0  0  0  0  0  0  0
  -12.1550    5.5730    4.0710 C   0  0  0  0  0  0  0  0  0  0  0  0
  -11.8700    4.2310    4.3270 C   0  0  0  0  0  0  0  0  0  0  0  0
  -11.1660    3.8760    5.4790 C   0  0  0  0  0  0  0  0  0  0  0  0
  -12.0160    7.8660    4.7150 O   0  0  0  0  0  0  0  0  0  0  0  0
   -6.8990    7.6510    9.7710 O   0  0  0  0  0  0  0  0  0  0  0  0
   -6.7875    3.2043    5.2583 N   0  0  0  0  0  0  0  0  0  0  0  0
   -7.2849    2.4359    4.2972 N   0  0  0  0  0  0  0  0  0  0  0  0
   -8.5783    2.7804    4.1505 C   0  0  0  0  0  0  0  0  0  0  0  0
   -9.6754    2.0353    2.9449 S   0  0  0  0  0  0  0  0  0  0  0  0
  -10.2686    0.7672    4.1109 C   0  0  0  0  0  0  0  0  0  0  0  0
  -11.2017   -0.1744    3.4070 C   0  0  0  0  0  0  0  0  0  0  0  0
  -12.4198   -0.1693    3.7340 O   0  0  0  0  0  0  0  0  0  0  0  0
  -10.7345   -1.0745    2.3775 N   0  0  0  0  0  0  0  0  0  0  0  0
   -9.3224   -1.4902    2.3527 C   0  0  0  0  0  0  0  0  0  0  0  0
   -9.0515   -2.5316    1.2616 C   0  0  0  0  0  0  0  0  0  0  0  0
   -9.6539   -2.0665   -0.0737 C   0  0  0  0  0  0  0  0  0  0  0  0
   -9.3020   -3.0662   -1.1964 C   0  0  0  0  0  0  0  0  0  0  0  0
  -10.0825   -2.7417   -2.4735 C   0  0  0  0  0  0  0  0  0  0  0  0
  -11.6098   -2.8024   -2.2652 C   0  0  0  0  0  0  0  0  0  0  0  0
  -12.0342   -2.7756   -0.7869 C   0  0  0  0  0  0  0  0  0  0  0  0
  -11.1910   -1.7800    0.0353 C   0  0  0  0  0  0  0  0  0  0  0  0
  -11.7021   -1.7425    1.4936 C   0  0  0  0  0  0  0  0  0  0  0  0
   -8.9200    3.7587    5.0050 N   0  0  0  0  0  0  0  0  0  0  0  0
  -10.1301    4.4710    5.0338 N   0  0  0  0  0  0  0  0  0  0  0  0
  1  3  4  0
  1 14  4  0
  1  2  1  0
  3  4  4  0
  4  5  4  0
  5  6  4  0
  5 22  1  0
  6  7  1  0
  6 14  4  0
  7  8  1  0
  8  9  4  0
  8 12  4  0
  9 10  4  0
 10 11  4  0
 11 12  4  0
 12 13  1  0
 13 14  1  0
 13 15  1  6
 15 16  4  0
 15 20  4  0
 16 17  4  0
 17 18  4  0
 17 21  1  0
 18 19  4  0
 19 20  4  0
 23 24  4  0
 24 25  4  0
 25 26  1  0
 26 27  1  0
 27 28  1  0
 28 29  2  0
 28 30  1  0
 30 31  1  0
 31 32  1  0
 32 33  1  0
 33 34  1  0
 34 35  1  0
 35 36  1  0
 36 37  1  0
 37 38  1  0
 38 39  1  0
 25 40  4  0
 40 41  1  0
 39 30  1  0
 38 33  1  0
  2 23  4  0
  2 40  4  0
M  END
$$$$

     RDKit          3D

 42 47  0  0  0  0  0  0  0  0999 V2000
   -7.6410    4.9930    6.8080 C   0  0  0  0  0  0  0  0  0  1  0  0
   -7.7310    4.0530    5.7140 C   0  0  0  0  0  0  0  0  0  2  0  0
   -6.4520    5.6300    6.8680 N   0  0  0  0  0  0  0  0  0  0  0  0
   -6.2260    6.5240    7.8670 N   0  0  0  0  0  0  0  0  0  0  0  0
   -7.1930    6.7500    8.7820 C   0  0  0  0  0  0  0  0  0  0  0  0
   -8.4240    6.1170    8.7580 C   0  0  0  0  0  0  0  0  0  0  0  0
   -9.3950    6.3570    9.7450 N   0  0  0  0  0  0  0  0  0  0  0  0
  -10.5620    5.6840    9.7600 C   0  0  0  0  0  0  0  0  0  0  0  0
  -11.5770    5.6820   10.5960 N   0  0  0  0  0  0  0  0  0  0  0  0
  -12.4690    4.7490   10.1080 N   0  0  0  0  0  0  0  0  0  0  0  0
  -12.0160    4.1880    8.9920 N   0  0  0  0  0  0  0  0  0  0  0  0
  -10.8400    4.7900    8.7610 N   0  0  0  0  0  0  0  0  0  0  0  0
   -9.9950    4.4790    7.6090 C   0  0  0  0  0  0  0  0  0  0  0  0
   -8.6630    5.2070    7.7200 C   0  0  0  0  0  0  0  0  0  0  0  0
  -10.7490    4.8610    6.3730 C   0  0  0  0  0  0  0  0  0  0  0  0
  -11.0350    6.2020    6.1170 C   0  0  0  0  0  0  0  0  0  0  0  0
  -11.7370    6.5580    4.9650 C   0  0  0  0  0  0  0  0  0  0  0  0
  -12.1550    5.5730    4.0710 C   0  0  0  0  0  0  0  0  0  0  0  0
  -11.8700    4.2310    4.3270 C   0  0  0  0  0  0  0  0  0  0  0  0
  -11.1660    3.8760    5.4790 C   0  0  0  0  0  0  0  0  0  0  0  0
  -12.0160    7.8660    4.7150 O   0  0  0  0  0  0  0  0  0  0  0  0
   -6.8990    7.6510    9.7710 O   0  0  0  0  0  0  0  0  0  0  0  0
   -6.8503    3.0744    5.4061 N   0  0  0  0  0  0  0  0  0  0  0  0
   -7.3023    2.3628    4.3846 N   0  0  0  0  0  0  0  0  0  0  0  0
   -8.4985    2.8787    4.0496 C   0  0  0  0  0  0  0  0  0  0  0  0
   -9.5211    2.1994    2.7286 S   0  0  0  0  0  0  0  0  0  0  0  0
   -8.8313    3.9278    4.8342 N   0  0  0  0  0  0  0  0  0  0  0  0
  -10.0299    4.7725    4.7401 C   0  0  0  0  0  0  0  0  0  0  0  0
  -10.0782    5.5224    3.4339 C   0  0  0  0  0  0  0  0  0  0  0  0
  -10.8433    5.0898    2.5300 O   0  0  0  0  0  0  0  0  0  0  0  0
   -9.3063    6.7264    3.2097 N   0  0  0  0  0  0  0  0  0  0  0  0
   -8.2321    7.1000    4.1393 C   0  0  0  0  0  0  0  0  0  0  0  0
   -9.6101    7.6056    2.0610 C   0  0  0  0  0  0  0  0  0  0  0  0
  -10.2143    8.9292    2.5583 C   0  0  0  0  0  0  0  0  0  0  0  0
   -8.3839    7.7515    1.1709 C   0  0  0  0  0  0  0  0  0  0  0  0
   -7.6570    8.9544    1.0512 C   0  0  0  0  0  0  0  0  0  0  0  0
   -6.5270    9.0237    0.2323 C   0  0  0  0  0  0  0  0  0  0  0  0
   -6.0921    7.8881   -0.4792 C   0  0  0  0  0  0  0  0  0  0  0  0
   -4.9603    7.9063   -1.3083 O   0  0  0  0  0  0  0  0  0  0  0  0
   -4.1357    9.0485   -1.5155 C   0  0  0  0  0  0  0  0  0  0  0  0
   -6.8102    6.6940   -0.3583 C   0  0  0  0  0  0  0  0  0  0  0  0
   -7.9411    6.6239    0.4596 C   0  0  0  0  0  0  0  0  0  0  0  0
  1  3  4  0
  1 14  4  0
  1  2  1  0
  3  4  4  0
  4  5  4  0
  5  6  4  0
  5 22  1  0
  6  7  1  0
  6 14  4  0
  7  8  1  0
  8  9  4  0
  8 12  4  0
  9 10  4  0
 10 11  4  0
 11 12  4  0
 12 13  1  0
 13 14  1  0
 13 15  1  6
 15 16  4  0
 15 20  4  0
 16 17  4  0
 17 18  4  0
 17 21  1  0
 18 19  4  0
 19 20  4  0
 23 24  4  0
 24 25  4  0
 25 26  1  0
 25 27  4  0
 27 28  1  0
 28 29  1  0
 29 30  2  0
 29 31  1  0
 31 32  1  0
 31 33  1  0
 33 34  1  0
 33 35  1  0
 35 36  4  0
 36 37  4  0
 37 38  4  0
 38 39  1  0
 39 40  1  0
 38 41  4  0
 41 42  4  0
 42 35  4  0
  2 23  4  0
  2 27  4  0
M  CHG  1  26  -1
M  END
$$$$

     RDKit          3D

 43 49  0  0  0  0  0  0  0  0999 V2000
   -7.6410    4.9930    6.8080 C   0  0  0  0  0  0  0  0  0  1  0  0
   -7.7310    4.0530    5.7140 C   0  0  0  0  0  0  0  0  0  2  0  0
   -6.4520    5.6300    6.8680 N   0  0  0  0  0  0  0  0  0  0  0  0
   -6.2260    6.5240    7.8670 N   0  0  0  0  0  0  0  0  0  0  0  0
   -7.1930    6.7500    8.7820 C   0  0  0  0  0  0  0  0  0  0  0  0
   -8.4240    6.1170    8.7580 C   0  0  0  0  0  0  0  0  0  0  0  0
   -9.3950    6.3570    9.7450 N   0  0  0  0  0  0  0  0  0  0  0  0
  -10.5620    5.6840    9.7600 C   0  0  0  0  0  0  0  0  0  0  0  0
  -11.5770    5.6820   10.5960 N   0  0  0  0  0  0  0  0  0  0  0  0
  -12.4690    4.7490   10.1080 N   0  0  0  0  0  0  0  0  0  0  0  0
  -12.0160    4.1880    8.9920 N   0  0  0  0  0  0  0  0  0  0  0  0
  -10.8400    4.7900    8.7610 N   0  0  0  0  0  0  0  0  0  0  0  0
   -9.9950    4.4790    7.6090 C   0  0  0  0  0  0  0  0  0  0  0  0
   -8.6630    5.2070    7.7200 C   0  0  0  0  0  0  0  0  0  0  0  0
  -10.7490    4.8610    6.3730 C   0  0  0  0  0  0  0  0  0  0  0  0
  -11.0350    6.2020    6.1170 C   0  0  0  0  0  0  0  0  0  0  0  0
  -11.7370    6.5580    4.9650 C   0  0  0  0  0  0  0  0  0  0  0  0
  -12.1550    5.5730    4.0710 C   0  0  0  0  0  0  0  0  0  0  0  0
  -11.8700    4.2310    4.3270 C   0  0  0  0  0  0  0  0  0  0  0  0
  -11.1660    3.8760    5.4790 C   0  0  0  0  0  0  0  0  0  0  0  0
  -12.0160    7.8660    4.7150 O   0  0  0  0  0  0  0  0  0  0  0  0
   -6.8990    7.6510    9.7710 O   0  0  0  0  0  0  0  0  0  0  0  0
   -6.9111    2.9178    5.5824 C   0  0  0  0  0  0  0  0  0  0  0  0
   -7.0362    2.0328    4.5601 N   0  0  0  0  0  0  0  0  0  0  0  0
   -7.9970    2.1885    3.6121 C   0  0  0  0  0  0  0  0  0  0  0  0
   -8.8593    3.2378    3.6940 N   0  0  0  0  0  0  0  0  0  0  0  0
   -8.7774    4.1464    4.7016 C   0  0  0  0  0  0  0  0  0  0  0  0
   -9.6953    5.2424    4.7350 N   0  0  0  0  0  0  0  0  0  0  0  0
   -9.4908    6.4251    3.8990 C   0  0  0  0  0  0  0  0  0  0  0  0
  -10.6875    6.6584    2.9678 C   0  0  0  0  0  0  0  0  0  0  0  0
  -10.8544    5.5089    1.9650 C   0  0  0  0  0  0  0  0  0  0  0  0
  -11.7307    5.9178    0.7760 C   0  0  0  0  0  0  0  0  0  0  0  0
  -12.1501    4.7525   -0.0106 N   0  0  0  0  0  0  0  0  0  0  0  0
  -10.8289    4.0229   -0.8871 S   0  0  0  0  0  0  0  0  0  0  0  0
   -9.6290    4.9311   -0.9419 O   0  0  0  0  0  0  0  0  0  0  0  0
  -11.2653    3.7391   -2.2972 O   0  0  0  0  0  0  0  0  0  0  0  0
  -10.4076    2.5004   -0.1045 C   0  0  0  0  0  0  0  0  0  0  0  0
  -11.1450    1.3463   -0.3959 C   0  0  0  0  0  0  0  0  0  0  0  0
  -10.8612    0.1463    0.2606 C   0  0  0  0  0  0  0  0  0  0  0  0
   -9.8612    0.0992    1.2333 C   0  0  0  0  0  0  0  0  0  0  0  0
   -9.1366    1.2519    1.5583 C   0  0  0  0  0  0  0  0  0  0  0  0
   -9.3865    2.4430    0.8550 C   0  0  0  0  0  0  0  0  0  0  0  0
   -8.1348    1.1949    2.5850 N   0  0  0  0  0  0  0  0  0  0  0  0
  1  3  4  0
  1 14  4  0
  1  2  1  0
  3  4  4  0
  4  5  4  0
  5  6  4  0
  5 22  1  0
  6  7  1  0
  6 14  4  0
  7  8  1  0
  8  9  4  0
  8 12  4  0
  9 10  4  0
 10 11  4  0
 11 12  4  0
 12 13  1  0
 13 14  1  0
 13 15  1  6
 15 16  4  0
 15 20  4  0
 16 17  4  0
 17 18  4  0
 17 21  1  0
 18 19  4  0
 19 20  4  0
 23 24  4  0
 24 25  4  0
 25 26  4  0
 26 27  4  0
 27 28  1  0
 28 29  1  0
 29 30  1  0
 30 31  1  0
 31 32  1  0
 32 33  1  0
 33 34  1  0
 34 35  2  0
 34 36  2  0
 34 37  1  0
 37 38  4  0
 38 39  4  0
 39 40  4  0
 40 41  4  0
 41 42  4  0
 41 43  1  0
 42 37  4  0
 43 25  1  0
  2 23  4  0
  2 27  4  0
M  END
$$$$

     RDKit          3D

 43 49  0  0  0  0  0  0  0  0999 V2000
   -7.6410    4.9930    6.8080 C   0  0  0  0  0  0  0  0  0  1  0  0
   -7.7310    4.0530    5.7140 C   0  0  0  0  0  0  0  0  0  2  0  0
   -6.4520    5.6300    6.8680 N   0  0  0  0  0  0  0  0  0  0  0  0
   -6.2260    6.5240    7.8670 N   0  0  0  0  0  0  0  0  0  0  0  0
   -7.1930    6.7500    8.7820 C   0  0  0  0  0  0  0  0  0  0  0  0
   -8.4240    6.1170    8.7580 C   0  0  0  0  0  0  0  0  0  0  0  0
   -9.3950    6.3570    9.7450 N   0  0  0  0  0  0  0  0  0  0  0  0
  -10.5620    5.6840    9.7600 C   0  0  0  0  0  0  0  0  0  0  0  0
  -11.5770    5.6820   10.5960 N   0  0  0  0  0  0  0  0  0  0  0  0
  -12.4690    4.7490   10.1080 N   0  0  0  0  0  0  0  0  0  0  0  0
  -12.0160    4.1880    8.9920 N   0  0  0  0  0  0  0  0  0  0  0  0
  -10.8400    4.7900    8.7610 N   0  0  0  0  0  0  0  0  0  0  0  0
   -9.9950    4.4790    7.6090 C   0  0  0  0  0  0  0  0  0  0  0  0
   -8.6630    5.2070    7.7200 C   0  0  0  0  0  0  0  0  0  0  0  0
  -10.7490    4.8610    6.3730 C   0  0  0  0  0  0  0  0  0  0  0  0
  -11.0350    6.2020    6.1170 C   0  0  0  0  0  0  0  0  0  0  0  0
  -11.7370    6.5580    4.9650 C   0  0  0  0  0  0  0  0  0  0  0  0
  -12.1550    5.5730    4.0710 C   0  0  0  0  0  0  0  0  0  0  0  0
  -11.8700    4.2310    4.3270 C   0  0  0  0  0  0  0  0  0  0  0  0
  -11.1660    3.8760    5.4790 C   0  0  0  0  0  0  0  0  0  0  0  0
  -12.0160    7.8660    4.7150 O   0  0  0  0  0  0  0  0  0  0  0  0
   -6.8990    7.6510    9.7710 O   0  0  0  0  0  0  0  0  0  0  0  0
   -6.9183    2.9087    5.5910 C   0  0  0  0  0  0  0  0  0  0  0  0
   -7.1156    1.9536    4.6452 N   0  0  0  0  0  0  0  0  0  0  0  0
   -8.1514    2.0369    3.7732 C   0  0  0  0  0  0  0  0  0  0  0  0
   -9.0034    3.0899    3.8526 N   0  0  0  0  0  0  0  0  0  0  0  0
   -8.8553    4.0730    4.7716 C   0  0  0  0  0  0  0  0  0  0  0  0
   -9.7838    5.1666    4.7594 N   0  0  0  0  0  0  0  0  0  0  0  0
   -9.3493    6.5581    4.6491 C   0  0  0  0  0  0  0  0  0  0  0  0
  -10.1718    7.3212    3.5983 C   0  0  0  0  0  0  0  0  0  0  0  0
   -9.8799    6.8844    2.1508 C   0  0  0  0  0  0  0  0  0  0  0  0
  -10.8073    5.7682    1.6656 C   0  0  0  0  0  0  0  0  0  0  0  0
  -10.5564    5.5012    0.2468 N   0  0  0  0  0  0  0  0  0  0  0  0
  -11.3263    4.0199   -0.2439 S   0  0  0  0  0  0  0  0  0  0  0  0
  -12.5442    3.7416    0.5919 O   0  0  0  0  0  0  0  0  0  0  0  0
  -11.7465    4.1334   -1.6812 O   0  0  0  0  0  0  0  0  0  0  0  0
  -10.1703    2.7051   -0.0644 C   0  0  0  0  0  0  0  0  0  0  0  0
   -9.4646    2.2165   -1.1712 C   0  0  0  0  0  0  0  0  0  0  0  0
   -8.4505    1.2705   -0.9900 C   0  0  0  0  0  0  0  0  0  0  0  0
   -8.0965    0.8572    0.2994 C   0  0  0  0  0  0  0  0  0  0  0  0
   -8.7782    1.3625    1.4183 C   0  0  0  0  0  0  0  0  0  0  0  0
   -9.8691    2.2260    1.2147 C   0  0  0  0  0  0  0  0  0  0  0  0
   -8.3032    1.0434    2.7411 N   0  0  0  0  0  0  0  0  0  0  0  0
  1  3  4  0
  1 14  4  0
  1  2  1  0
  3  4  4  0
  4  5  4  0
  5  6  4  0
  5 22  1  0
  6  7  1  0
  6 14  4  0
  7  8  1  0
  8  9  4  0
  8 12  4  0
  9 10  4  0
 10 11  4  0
 11 12  4  0
 12 13  1  0
 13 14  1  0
 13 15  1  6
 15 16  4  0
 15 20  4  0
 16 17  4  0
 17 18  4  0
 17 21  1  0
 18 19  4  0
 19 20  4  0
 23 24  4  0
 24 25  4  0
 25 26  4  0
 26 27  4  0
 27 28  1  0
 28 29  1  0
 29 30  1  0
 30 31  1  0
 31 32  1  0
 32 33  1  0
 33 34  1  0
 34 35  2  0
 34 36  2  0
 34 37  1  0
 37 38  4  0
 38 39  4  0
 39 40  4  0
 40 41  4  0
 41 42  4  0
 41 43  1  0
 42 37  4  0
 43 25  1  0
  2 23  4  0
  2 27  4  0
M  END
$$$$

     RDKit          3D

 31 35  0  0  0  0  0  0  0  0999 V2000
   -7.6410    4.9930    6.8080 C   0  0  0  0  0  0  0  0  0  1  0  0
   -7.7310    4.0530    5.7140 C   0  0  0  0  0  0  0  0  0  2  0  0
   -6.4520    5.6300    6.8680 N   0  0  0  0  0  0  0  0  0  0  0  0
   -6.2260    6.5240    7.8670 N   0  0  0  0  0  0  0  0  0  0  0  0
   -7.1930    6.7500    8.7820 C   0  0  0  0  0  0  0  0  0  0  0  0
   -8.4240    6.1170    8.7580 C   0  0  0  0  0  0  0  0  0  0  0  0
   -9.3950    6.3570    9.7450 N   0  0  0  0  0  0  0  0  0  0  0  0
  -10.5620    5.6840    9.7600 C   0  0  0  0  0  0  0  0  0  0  0  0
  -11.5770    5.6820   10.5960 N   0  0  0  0  0  0  0  0  0  0  0  0
  -12.4690    4.7490   10.1080 N   0  0  0  0  0  0  0  0  0  0  0  0
  -12.0160    4.1880    8.9920 N   0  0  0  0  0  0  0  0  0  0  0  0
  -10.8400    4.7900    8.7610 N   0  0  0  0  0  0  0  0  0  0  0  0
   -9.9950    4.4790    7.6090 C   0  0  0  0  0  0  0  0  0  0  0  0
   -8.6630    5.2070    7.7200 C   0  0  0  0  0  0  0  0  0  0  0  0
  -10.7490    4.8610    6.3730 C   0  0  0  0  0  0  0  0  0  0  0  0
  -11.0350    6.2020    6.1170 C   0  0  0  0  0  0  0  0  0  0  0  0
  -11.7370    6.5580    4.9650 C   0  0  0  0  0  0  0  0  0  0  0  0
  -12.1550    5.5730    4.0710 C   0  0  0  0  0  0  0  0  0  0  0  0
  -11.8700    4.2310    4.3270 C   0  0  0  0  0  0  0  0  0  0  0  0
  -11.1660    3.8760    5.4790 C   0  0  0  0  0  0  0  0  0  0  0  0
  -12.0160    7.8660    4.7150 O   0  0  0  0  0  0  0  0  0  0  0  0
   -6.8990    7.6510    9.7710 O   0  0  0  0  0  0  0  0  0  0  0  0
   -7.2007    2.7374    5.8234 C   0  0  0  0  0  0  0  0  0  0  0  0
   -7.3375    1.7848    4.8110 C   0  0  0  0  0  0  0  0  0  0  0  0
   -8.0581    2.0892    3.6565 C   0  0  0  0  0  0  0  0  0  0  0  0
   -8.6416    3.3491    3.5072 C   0  0  0  0  0  0  0  0  0  0  0  0
   -8.5113    4.3212    4.5131 C   0  0  0  0  0  0  0  0  0  0  0  0
   -9.2462    5.9165    4.2753 S   0  0  0  0  0  0  0  0  0  0  0  0
   -9.7824    6.1076    2.6372 N   0  0  0  0  0  0  0  0  0  0  0  0
  -10.4246    6.0676    5.1971 O   0  0  0  0  0  0  0  0  0  0  0  0
   -8.2319    6.9897    4.5738 O   0  0  0  0  0  0  0  0  0  0  0  0
  1  3  4  0
  1 14  4  0
  1  2  1  0
  3  4  4  0
  4  5  4  0
  5  6  4  0
  5 22  1  0
  6  7  1  0
  6 14  4  0
  7  8  1  0
  8  9  4  0
  8 12  4  0
  9 10  4  0
 10 11  4  0
 11 12  4  0
 12 13  1  0
 13 14  1  0
 13 15  1  6
 15 16  4  0
 15 20  4  0
 16 17  4  0
 17 18  4  0
 17 21  1  0
 18 19  4  0
 19 20  4  0
 23 24  4  0
 24 25  4  0
 25 26  4  0
 26 27  4  0
 27 28  1  0
 28 29  1  0
 28 30  2  0
 28 31  2  0
  2 23  4  0
  2 27  4  0
M  END
$$$$

     RDKit          3D

 38 43  0  0  0  0  0  0  0  0999 V2000
   -7.6410    4.9930    6.8080 C   0  0  0  0  0  0  0  0  0  1  0  0
   -7.7310    4.0530    5.7140 C   0  0  0  0  0  0  0  0  0  2  0  0
   -6.4520    5.6300    6.8680 N   0  0  0  0  0  0  0  0  0  0  0  0
   -6.2260    6.5240    7.8670 N   0  0  0  0  0  0  0  0  0  0  0  0
   -7.1930    6.7500    8.7820 C   0  0  0  0  0  0  0  0  0  0  0  0
   -8.4240    6.1170    8.7580 C   0  0  0  0  0  0  0  0  0  0  0  0
   -9.3950    6.3570    9.7450 N   0  0  0  0  0  0  0  0  0  0  0  0
  -10.5620    5.6840    9.7600 C   0  0  0  0  0  0  0  0  0  0  0  0
  -11.5770    5.6820   10.5960 N   0  0  0  0  0  0  0  0  0  0  0  0
  -12.4690    4.7490   10.1080 N   0  0  0  0  0  0  0  0  0  0  0  0
  -12.0160    4.1880    8.9920 N   0  0  0  0  0  0  0  0  0  0  0  0
  -10.8400    4.7900    8.7610 N   0  0  0  0  0  0  0  0  0  0  0  0
   -9.9950    4.4790    7.6090 C   0  0  0  0  0  0  0  0  0  0  0  0
   -8.6630    5.2070    7.7200 C   0  0  0  0  0  0  0  0  0  0  0  0
  -10.7490    4.8610    6.3730 C   0  0  0  0  0  0  0  0  0  0  0  0
  -11.0350    6.2020    6.1170 C   0  0  0  0  0  0  0  0  0  0  0  0
  -11.7370    6.5580    4.9650 C   0  0  0  0  0  0  0  0  0  0  0  0
  -12.1550    5.5730    4.0710 C   0  0  0  0  0  0  0  0  0  0  0  0
  -11.8700    4.2310    4.3270 C   0  0  0  0  0  0  0  0  0  0  0  0
  -11.1660    3.8760    5.4790 C   0  0  0  0  0  0  0  0  0  0  0  0
  -12.0160    7.8660    4.7150 O   0  0  0  0  0  0  0  0  0  0  0  0
   -6.8990    7.6510    9.7710 O   0  0  0  0  0  0  0  0  0  0  0  0
   -6.8659    3.0551    5.4174 N   0  0  0  0  0  0  0  0  0  0  0  0
   -7.3129    2.3983    4.3596 N   0  0  0  0  0  0  0  0  0  0  0  0
   -8.4774    2.9548    3.9888 C   0  0  0  0  0  0  0  0  0  0  0  0
   -9.3057    2.5140    2.6442 S   0  0  0  0  0  0  0  0  0  0  0  0
   -8.8173    3.9711    4.8109 N   0  0  0  0  0  0  0  0  0  0  0  0
   -9.8795    4.9618    4.6039 C   0  0  0  0  0  0  0  0  0  0  0  0
   -9.4294    5.9898    3.6022 C   0  0  0  0  0  0  0  0  0  0  0  0
   -8.4122    6.6864    3.8688 O   0  0  0  0  0  0  0  0  0  0  0  0
  -10.1051    6.1705    2.3425 N   0  0  0  0  0  0  0  0  0  0  0  0
  -11.5469    5.9081    2.2172 C   0  0  0  0  0  0  0  0  0  0  0  0
  -12.1603    6.7646    1.1060 C   0  0  0  0  0  0  0  0  0  0  0  0
  -11.4534    6.5694   -0.2482 C   0  0  0  0  0  0  0  0  0  0  0  0
   -9.9672    6.1435   -0.1258 C   0  0  0  0  0  0  0  0  0  0  0  0
   -9.1308    6.6036   -1.3394 C   0  0  0  0  0  0  0  0  0  0  0  0
   -9.5943    5.9608   -2.6466 C   0  0  0  0  0  0  0  0  0  0  0  0
   -9.3448    6.6609    1.1839 C   0  0  0  0  0  0  0  0  0  0  0  0
  1  3  4  0
  1 14  4  0
  1  2  1  0
  3  4  4  0
  4  5  4  0
  5  6  4  0
  5 22  1  0
  6  7  1  0
  6 14  4  0
  7  8  1  0
  8  9  4  0
  8 12  4  0
  9 10  4  0
 10 11  4  0
 11 12  4  0
 12 13  1  0
 13 14  1  0
 13 15  1  6
 15 16  4  0
 15 20  4  0
 16 17  4  0
 17 18  4  0
 17 21  1  0
 18 19  4  0
 19 20  4  0
 23 24  4  0
 24 25  4  0
 25 26  2  0
 25 27  4  0
 27 28  1  0
 28 29  1  0
 29 30  2  0
 29 31  1  0
 31 32  1  0
 32 33  1  0
 33 34  1  0
 34 35  1  0
 35 36  1  0
 36 37  1  0
 35 38  1  0
 38 31  1  0
  2 23  4  0
  2 27  4  0
M  END
$$$$

     RDKit          3D

 28 32  0  0  0  0  0  0  0  0999 V2000
   -7.6410    4.9930    6.8080 C   0  0  0  0  0  0  0  0  0  1  0  0
   -7.7310    4.0530    5.7140 C   0  0  0  0  0  0  0  0  0  2  0  0
   -6.4520    5.6300    6.8680 N   0  0  0  0  0  0  0  0  0  0  0  0
   -6.2260    6.5240    7.8670 N   0  0  0  0  0  0  0  0  0  0  0  0
   -7.1930    6.7500    8.7820 C   0  0  0  0  0  0  0  0  0  0  0  0
   -8.4240    6.1170    8.7580 C   0  0  0  0  0  0  0  0  0  0  0  0
   -9.3950    6.3570    9.7450 N   0  0  0  0  0  0  0  0  0  0  0  0
  -10.5620    5.6840    9.7600 C   0  0  0  0  0  0  0  0  0  0  0  0
  -11.5770    5.6820   10.5960 N   0  0  0  0  0  0  0  0  0  0  0  0
  -12.4690    4.7490   10.1080 N   0  0  0  0  0  0  0  0  0  0  0  0
  -12.0160    4.1880    8.9920 N   0  0  0  0  0  0  0  0  0  0  0  0
  -10.8400    4.7900    8.7610 N   0  0  0  0  0  0  0  0  0  0  0  0
   -9.9950    4.4790    7.6090 C   0  0  0  0  0  0  0  0  0  0  0  0
   -8.6630    5.2070    7.7200 C   0  0  0  0  0  0  0  0  0  0  0  0
  -10.7490    4.8610    6.3730 C   0  0  0  0  0  0  0  0  0  0  0  0
  -11.0350    6.2020    6.1170 C   0  0  0  0  0  0  0  0  0  0  0  0
  -11.7370    6.5580    4.9650 C   0  0  0  0  0  0  0  0  0  0  0  0
  -12.1550    5.5730    4.0710 C   0  0  0  0  0  0  0  0  0  0  0  0
  -11.8700    4.2310    4.3270 C   0  0  0  0  0  0  0  0  0  0  0  0
  -11.1660    3.8760    5.4790 C   0  0  0  0  0  0  0  0  0  0  0  0
  -12.0160    7.8660    4.7150 O   0  0  0  0  0  0  0  0  0  0  0  0
   -6.8990    7.6510    9.7710 O   0  0  0  0  0  0  0  0  0  0  0  0
   -6.7890    3.2862    5.2152 O   0  0  0  0  0  0  0  0  0  0  0  0
   -7.1844    2.4932    4.2605 N   0  0  0  0  0  0  0  0  0  0  0  0
   -8.5048    2.7015    4.0985 C   0  0  0  0  0  0  0  0  0  0  0  0
   -9.3318    2.0181    3.0586 C   0  0  0  0  0  0  0  0  0  0  0  0
   -8.9271    3.6829    4.9757 C   0  0  0  0  0  0  0  0  0  0  0  0
  -10.3045    4.2607    5.0927 C   0  0  0  0  0  0  0  0  0  0  0  0
  1  3  4  0
  1 14  4  0
  1  2  1  0
  3  4  4  0
  4  5  4  0
  5  6  4  0
  5 22  1  0
  6  7  1  0
  6 14  4  0
  7  8  1  0
  8  9  4  0
  8 12  4  0
  9 10  4  0
 10 11  4  0
 11 12  4  0
 12 13  1  0
 13 14  1  0
 13 15  1  6
 15 16  4  0
 15 20  4  0
 16 17  4  0
 17 18  4  0
 17 21  1  0
 18 19  4  0
 19 20  4  0
 23 24  4  0
 24 25  4  0
 25 26  1  0
 25 27  4  0
 27 28  1  0
  2 23  4  0
  2 27  4  0
M  END
$$$$

     RDKit          3D

 45 51  0  0  0  0  0  0  0  0999 V2000
   -7.6410    4.9930    6.8080 C   0  0  0  0  0  0  0  0  0  1  0  0
   -7.7310    4.0530    5.7140 C   0  0  0  0  0  0  0  0  0  2  0  0
   -6.4520    5.6300    6.8680 N   0  0  0  0  0  0  0  0  0  0  0  0
   -6.2260    6.5240    7.8670 N   0  0  0  0  0  0  0  0  0  0  0  0
   -7.1930    6.7500    8.7820 C   0  0  0  0  0  0  0  0  0  0  0  0
   -8.4240    6.1170    8.7580 C   0  0  0  0  0  0  0  0  0  0  0  0
   -9.3950    6.3570    9.7450 N   0  0  0  0  0  0  0  0  0  0  0  0
  -10.5620    5.6840    9.7600 C   0  0  0  0  0  0  0  0  0  0  0  0
  -11.5770    5.6820   10.5960 N   0  0  0  0  0  0  0  0  0  0  0  0
  -12.4690    4.7490   10.1080 N   0  0  0  0  0  0  0  0  0  0  0  0
  -12.0160    4.1880    8.9920 N   0  0  0  0  0  0  0  0  0  0  0  0
  -10.8400    4.7900    8.7610 N   0  0  0  0  0  0  0  0  0  0  0  0
   -9.9950    4.4790    7.6090 C   0  0  0  0  0  0  0  0  0  0  0  0
   -8.6630    5.2070    7.7200 C   0  0  0  0  0  0  0  0  0  0  0  0
  -10.7490    4.8610    6.3730 C   0  0  0  0  0  0  0  0  0  0  0  0
  -11.0350    6.2020    6.1170 C   0  0  0  0  0  0  0  0  0  0  0  0
  -11.7370    6.5580    4.9650 C   0  0  0  0  0  0  0  0  0  0  0  0
  -12.1550    5.5730    4.0710 C   0  0  0  0  0  0  0  0  0  0  0  0
  -11.8700    4.2310    4.3270 C   0  0  0  0  0  0  0  0  0  0  0  0
  -11.1660    3.8760    5.4790 C   0  0  0  0  0  0  0  0  0  0  0  0
  -12.0160    7.8660    4.7150 O   0  0  0  0  0  0  0  0  0  0  0  0
   -6.8990    7.6510    9.7710 O   0  0  0  0  0  0  0  0  0  0  0  0
   -6.8063    3.1546    5.3221 N   0  0  0  0  0  0  0  0  0  0  0  0
   -7.2442    2.4698    4.2770 N   0  0  0  0  0  0  0  0  0  0  0  0
   -6.4383    1.4910    3.5573 C   0  0  0  0  0  0  0  0  0  0  0  0
   -5.3259    2.1862    2.8178 C   0  0  0  0  0  0  0  0  0  0  0  0
   -3.9857    1.9794    3.1904 C   0  0  0  0  0  0  0  0  0  0  0  0
   -2.9572    2.6429    2.5159 C   0  0  0  0  0  0  0  0  0  0  0  0
   -3.2585    3.5177    1.4681 C   0  0  0  0  0  0  0  0  0  0  0  0
   -4.5870    3.7253    1.0914 C   0  0  0  0  0  0  0  0  0  0  0  0
   -5.6186    3.0629    1.7635 C   0  0  0  0  0  0  0  0  0  0  0  0
   -8.4820    2.8768    3.9420 C   0  0  0  0  0  0  0  0  0  0  0  0
   -8.8664    3.8621    4.8264 C   0  0  0  0  0  0  0  0  0  0  0  0
  -10.1125    4.7011    4.7129 C   0  0  0  0  0  0  0  0  0  0  0  0
   -9.8141    6.1002    4.3480 N   0  0  0  0  0  0  0  0  0  0  0  0
   -9.2386    6.2516    2.9971 C   0  0  0  0  0  0  0  0  0  0  0  0
  -10.2005    5.8260    1.9113 C   0  0  0  0  0  0  0  0  0  0  0  0
   -9.8956    4.7410    1.0799 C   0  0  0  0  0  0  0  0  0  0  0  0
  -10.7913    4.3339    0.0889 C   0  0  0  0  0  0  0  0  0  0  0  0
  -12.0179    5.0063   -0.1016 C   0  0  0  0  0  0  0  0  0  0  0  0
  -12.9609    4.5711   -1.1210 N   0  0  0  0  0  0  0  0  0  0  0  0
  -14.3268    5.1108   -1.1547 C   0  0  0  0  0  0  0  0  0  0  0  0
  -12.5692    3.5810   -2.1304 C   0  0  0  0  0  0  0  0  0  0  0  0
  -12.3030    6.1126    0.7292 C   0  0  0  0  0  0  0  0  0  0  0  0
  -11.4032    6.5177    1.7175 C   0  0  0  0  0  0  0  0  0  0  0  0
  1  3  4  0
  1 14  4  0
  1  2  1  0
  3  4  4  0
  4  5  4  0
  5  6  4  0
  5 22  1  0
  6  7  1  0
  6 14  4  0
  7  8  1  0
  8  9  4  0
  8 12  4  0
  9 10  4  0
 10 11  4  0
 11 12  4  0
 12 13  1  0
 13 14  1  0
 13 15  1  6
 15 16  4  0
 15 20  4  0
 16 17  4  0
 17 18  4  0
 17 21  1  0
 18 19  4  0
 19 20  4  0
 23 24  4  0
 24 25  1  0
 25 26  1  0
 26 27  4  0
 27 28  4  0
 28 29  4  0
 29 30  4  0
 30 31  4  0
 24 32  4  0
 32 33  4  0
 33 34  1  0
 34 35  1  0
 35 36  1  0
 36 37  1  0
 37 38  4  0
 38 39  4  0
 39 40  4  0
 40 41  1  0
 41 42  1  0
 41 43  1  0
 40 44  4  0
 44 45  4  0
 45 37  4  0
 31 26  4  0
  2 23  4  0
  2 33  4  0
M  CHG  1  35   1
M  END
$$$$

     RDKit          3D

 45 51  0  0  0  0  0  0  0  0999 V2000
   -7.6410    4.9930    6.8080 C   0  0  0  0  0  0  0  0  0  1  0  0
   -7.7310    4.0530    5.7140 C   0  0  0  0  0  0  0  0  0  2  0  0
   -6.4520    5.6300    6.8680 N   0  0  0  0  0  0  0  0  0  0  0  0
   -6.2260    6.5240    7.8670 N   0  0  0  0  0  0  0  0  0  0  0  0
   -7.1930    6.7500    8.7820 C   0  0  0  0  0  0  0  0  0  0  0  0
   -8.4240    6.1170    8.7580 C   0  0  0  0  0  0  0  0  0  0  0  0
   -9.3950    6.3570    9.7450 N   0  0  0  0  0  0  0  0  0  0  0  0
  -10.5620    5.6840    9.7600 C   0  0  0  0  0  0  0  0  0  0  0  0
  -11.5770    5.6820   10.5960 N   0  0  0  0  0  0  0  0  0  0  0  0
  -12.4690    4.7490   10.1080 N   0  0  0  0  0  0  0  0  0  0  0  0
  -12.0160    4.1880    8.9920 N   0  0  0  0  0  0  0  0  0  0  0  0
  -10.8400    4.7900    8.7610 N   0  0  0  0  0  0  0  0  0  0  0  0
   -9.9950    4.4790    7.6090 C   0  0  0  0  0  0  0  0  0  0  0  0
   -8.6630    5.2070    7.7200 C   0  0  0  0  0  0  0  0  0  0  0  0
  -10.7490    4.8610    6.3730 C   0  0  0  0  0  0  0  0  0  0  0  0
  -11.0350    6.2020    6.1170 C   0  0  0  0  0  0  0  0  0  0  0  0
  -11.7370    6.5580    4.9650 C   0  0  0  0  0  0  0  0  0  0  0  0
  -12.1550    5.5730    4.0710 C   0  0  0  0  0  0  0  0  0  0  0  0
  -11.8700    4.2310    4.3270 C   0  0  0  0  0  0  0  0  0  0  0  0
  -11.1660    3.8760    5.4790 C   0  0  0  0  0  0  0  0  0  0  0  0
  -12.0160    7.8660    4.7150 O   0  0  0  0  0  0  0  0  0  0  0  0
   -6.8990    7.6510    9.7710 O   0  0  0  0  0  0  0  0  0  0  0  0
   -6.8112    3.1443    5.3292 N   0  0  0  0  0  0  0  0  0  0  0  0
   -7.2784    2.4086    4.3335 N   0  0  0  0  0  0  0  0  0  0  0  0
   -6.5279    1.3327    3.6942 C   0  0  0  0  0  0  0  0  0  0  0  0
   -7.0298   -0.0046    4.1679 C   0  0  0  0  0  0  0  0  0  0  0  0
   -6.8800   -0.3760    5.5147 C   0  0  0  0  0  0  0  0  0  0  0  0
   -7.3462   -1.6170    5.9595 C   0  0  0  0  0  0  0  0  0  0  0  0
   -7.9626   -2.4958    5.0642 C   0  0  0  0  0  0  0  0  0  0  0  0
   -8.1161   -2.1332    3.7224 C   0  0  0  0  0  0  0  0  0  0  0  0
   -7.6515   -0.8930    3.2737 C   0  0  0  0  0  0  0  0  0  0  0  0
   -8.5394    2.7738    4.0376 C   0  0  0  0  0  0  0  0  0  0  0  0
   -8.8965    3.8104    4.8775 C   0  0  0  0  0  0  0  0  0  0  0  0
  -10.1886    4.5899    4.8361 C   0  0  0  0  0  0  0  0  0  0  0  0
  -10.4839    5.1056    3.4881 N   0  0  0  0  0  0  0  0  0  0  0  0
   -9.5287    6.1500    3.0778 C   0  0  0  0  0  0  0  0  0  0  0  0
   -9.8894    6.6958    1.7185 C   0  0  0  0  0  0  0  0  0  0  0  0
   -9.7321    5.8987    0.5757 C   0  0  0  0  0  0  0  0  0  0  0  0
  -10.0698    6.3942   -0.6864 C   0  0  0  0  0  0  0  0  0  0  0  0
  -10.5694    7.7041   -0.8362 C   0  0  0  0  0  0  0  0  0  0  0  0
  -10.9219    8.2203   -2.1448 N   0  0  0  0  0  0  0  0  0  0  0  0
  -11.2711    7.3053   -3.2376 C   0  0  0  0  0  0  0  0  0  0  0  0
  -10.9200    9.6661   -2.4009 C   0  0  0  0  0  0  0  0  0  0  0  0
  -10.7167    8.5003    0.3178 C   0  0  0  0  0  0  0  0  0  0  0  0
  -10.3797    8.0010    1.5792 C   0  0  0  0  0  0  0  0  0  0  0  0
  1  3  4  0
  1 14  4  0
  1  2  1  0
  3  4  4  0
  4  5  4  0
  5  6  4  0
  5 22  1  0
  6  7  1  0
  6 14  4  0
  7  8  1  0
  8  9  4  0
  8 12  4  0
  9 10  4  0
 10 11  4  0
 11 12  4  0
 12 13  1  0
 13 14  1  0
 13 15  1  6
 15 16  4  0
 15 20  4  0
 16 17  4  0
 17 18  4  0
 17 21  1  0
 18 19  4  0
 19 20  4  0
 23 24  4  0
 24 25  1  0
 25 26  1  0
 26 27  4  0
 27 28  4  0
 28 29  4  0
 29 30  4  0
 30 31  4  0
 24 32  4  0
 32 33  4  0
 33 34  1  0
 34 35  1  0
 35 36  1  0
 36 37  1  0
 37 38  4  0
 38 39  4  0
 39 40  4  0
 40 41  1  0
 41 42  1  0
 41 43  1  0
 40 44  4  0
 44 45  4  0
 45 37  4  0
 31 26  4  0
  2 23  4  0
  2 33  4  0
M  CHG  1  35   1
M  END
$$$$

     RDKit          3D

 47 54  0  0  0  0  0  0  0  0999 V2000
   -7.6410    4.9930    6.8080 C   0  0  0  0  0  0  0  0  0  1  0  0
   -7.7310    4.0530    5.7140 C   0  0  0  0  0  0  0  0  0  2  0  0
   -6.4520    5.6300    6.8680 N   0  0  0  0  0  0  0  0  0  0  0  0
   -6.2260    6.5240    7.8670 N   0  0  0  0  0  0  0  0  0  0  0  0
   -7.1930    6.7500    8.7820 C   0  0  0  0  0  0  0  0  0  0  0  0
   -8.4240    6.1170    8.7580 C   0  0  0  0  0  0  0  0  0  0  0  0
   -9.3950    6.3570    9.7450 N   0  0  0  0  0  0  0  0  0  0  0  0
  -10.5620    5.6840    9.7600 C   0  0  0  0  0  0  0  0  0  0  0  0
  -11.5770    5.6820   10.5960 N   0  0  0  0  0  0  0  0  0  0  0  0
  -12.4690    4.7490   10.1080 N   0  0  0  0  0  0  0  0  0  0  0  0
  -12.0160    4.1880    8.9920 N   0  0  0  0  0  0  0  0  0  0  0  0
  -10.8400    4.7900    8.7610 N   0  0  0  0  0  0  0  0  0  0  0  0
   -9.9950    4.4790    7.6090 C   0  0  0  0  0  0  0  0  0  0  0  0
   -8.6630    5.2070    7.7200 C   0  0  0  0  0  0  0  0  0  0  0  0
  -10.7490    4.8610    6.3730 C   0  0  0  0  0  0  0  0  0  0  0  0
  -11.0350    6.2020    6.1170 C   0  0  0  0  0  0  0  0  0  0  0  0
  -11.7370    6.5580    4.9650 C   0  0  0  0  0  0  0  0  0  0  0  0
  -12.1550    5.5730    4.0710 C   0  0  0  0  0  0  0  0  0  0  0  0
  -11.8700    4.2310    4.3270 C   0  0  0  0  0  0  0  0  0  0  0  0
  -11.1660    3.8760    5.4790 C   0  0  0  0  0  0  0  0  0  0  0  0
  -12.0160    7.8660    4.7150 O   0  0  0  0  0  0  0  0  0  0  0  0
   -6.8990    7.6510    9.7710 O   0  0  0  0  0  0  0  0  0  0  0  0
   -6.8892    2.9470    5.5045 C   0  0  0  0  0  0  0  0  0  0  0  0
   -7.4013    1.9929    4.2073 S   0  0  0  0  0  0  0  0  0  0  0  0
   -8.7490    2.9275    3.8720 C   0  0  0  0  0  0  0  0  0  0  0  0
   -9.6364    2.7301    2.8735 N   0  0  0  0  0  0  0  0  0  0  0  0
  -10.6629    3.6093    2.7172 C   0  0  0  0  0  0  0  0  0  0  0  0
  -10.7971    4.6914    3.5533 N   0  0  0  0  0  0  0  0  0  0  0  0
  -11.9014    5.6366    3.3223 C   0  0  0  0  0  0  0  0  0  0  0  0
  -11.4417    6.7804    2.4134 C   0  0  0  0  0  0  0  0  0  0  0  0
  -12.5634    7.7450    2.1604 C   0  0  0  0  0  0  0  0  0  0  0  0
  -13.0418    8.4042    3.1236 O   0  0  0  0  0  0  0  0  0  0  0  0
  -13.0814    7.9260    0.8357 N   0  0  0  0  0  0  0  0  0  0  0  0
  -14.2058    8.8242    0.5751 C   0  0  0  0  0  0  0  0  0  0  0  0
  -14.5484    8.8498   -0.9170 C   0  0  0  0  0  0  0  0  0  0  0  0
  -15.7231    9.7401   -1.1833 C   0  0  0  0  0  0  0  0  0  0  0  0
  -17.0292    9.4966   -0.7831 C   0  0  0  0  0  0  0  0  0  0  0  0
  -17.7669   10.5172   -1.2370 N   0  0  0  0  0  0  0  0  0  0  0  0
  -19.1000   10.7479   -1.1232 C   0  0  0  0  0  0  0  0  0  0  0  0
  -19.6214   11.9088   -1.7128 C   0  0  0  0  0  0  0  0  0  0  0  0
  -18.7573   12.7881   -2.3954 C   0  0  0  0  0  0  0  0  0  0  0  0
  -17.3840   12.5057   -2.4882 C   0  0  0  0  0  0  0  0  0  0  0  0
  -16.9222   11.3370   -1.8856 C   0  0  0  0  0  0  0  0  0  0  0  0
  -15.6465   10.8991   -1.8830 N   0  0  0  0  0  0  0  0  0  0  0  0
   -9.8776    4.9140    4.5538 C   0  0  0  0  0  0  0  0  0  0  0  0
   -9.9582    5.9444    5.2765 O   0  0  0  0  0  0  0  0  0  0  0  0
   -8.8360    3.9931    4.7423 C   0  0  0  0  0  0  0  0  0  0  0  0
  1  3  4  0
  1 14  4  0
  1  2  1  0
  3  4  4  0
  4  5  4  0
  5  6  4  0
  5 22  1  0
  6  7  1  0
  6 14  4  0
  7  8  1  0
  8  9  4  0
  8 12  4  0
  9 10  4  0
 10 11  4  0
 11 12  4  0
 12 13  1  0
 13 14  1  0
 13 15  1  6
 15 16  4  0
 15 20  4  0
 16 17  4  0
 17 18  4  0
 17 21  1  0
 18 19  4  0
 19 20  4  0
 23 24  4  0
 24 25  4  0
 25 26  4  0
 26 27  4  0
 27 28  4  0
 28 29  1  0
 29 30  1  0
 30 31  1  0
 31 32  2  0
 31 33  1  0
 33 34  1  0
 34 35  1  0
 35 36  1  0
 36 37  4  0
 37 38  4  0
 38 39  4  0
 39 40  4  0
 40 41  4  0
 41 42  4  0
 42 43  4  0
 43 44  4  0
 28 45  4  0
 45 46  2  0
 45 47  4  0
 47 25  4  0
 44 36  4  0
 43 38  4  0
  2 23  4  0
  2 47  4  0
M  END
$$$$

     RDKit          3D

 47 54  0  0  0  0  0  0  0  0999 V2000
   -7.6410    4.9930    6.8080 C   0  0  0  0  0  0  0  0  0  1  0  0
   -7.7310    4.0530    5.7140 C   0  0  0  0  0  0  0  0  0  2  0  0
   -6.4520    5.6300    6.8680 N   0  0  0  0  0  0  0  0  0  0  0  0
   -6.2260    6.5240    7.8670 N   0  0  0  0  0  0  0  0  0  0  0  0
   -7.1930    6.7500    8.7820 C   0  0  0  0  0  0  0  0  0  0  0  0
   -8.4240    6.1170    8.7580 C   0  0  0  0  0  0  0  0  0  0  0  0
   -9.3950    6.3570    9.7450 N   0  0  0  0  0  0  0  0  0  0  0  0
  -10.5620    5.6840    9.7600 C   0  0  0  0  0  0  0  0  0  0  0  0
  -11.5770    5.6820   10.5960 N   0  0  0  0  0  0  0  0  0  0  0  0
  -12.4690    4.7490   10.1080 N   0  0  0  0  0  0  0  0  0  0  0  0
  -12.0160    4.1880    8.9920 N   0  0  0  0  0  0  0  0  0  0  0  0
  -10.8400    4.7900    8.7610 N   0  0  0  0  0  0  0  0  0  0  0  0
   -9.9950    4.4790    7.6090 C   0  0  0  0  0  0  0  0  0  0  0  0
   -8.6630    5.2070    7.7200 C   0  0  0  0  0  0  0  0  0  0  0  0
  -10.7490    4.8610    6.3730 C   0  0  0  0  0  0  0  0  0  0  0  0
  -11.0350    6.2020    6.1170 C   0  0  0  0  0  0  0  0  0  0  0  0
  -11.7370    6.5580    4.9650 C   0  0  0  0  0  0  0  0  0  0  0  0
  -12.1550    5.5730    4.0710 C   0  0  0  0  0  0  0  0  0  0  0  0
  -11.8700    4.2310    4.3270 C   0  0  0  0  0  0  0  0  0  0  0  0
  -11.1660    3.8760    5.4790 C   0  0  0  0  0  0  0  0  0  0  0  0
  -12.0160    7.8660    4.7150 O   0  0  0  0  0  0  0  0  0  0  0  0
   -6.8990    7.6510    9.7710 O   0  0  0  0  0  0  0  0  0  0  0  0
   -6.8944    2.9421    5.5091 C   0  0  0  0  0  0  0  0  0  0  0  0
   -7.4162    1.9791    4.2223 S   0  0  0  0  0  0  0  0  0  0  0  0
   -8.7613    2.9167    3.8855 C   0  0  0  0  0  0  0  0  0  0  0  0
   -9.6606    2.7090    2.8998 N   0  0  0  0  0  0  0  0  0  0  0  0
  -10.6854    3.5895    2.7427 C   0  0  0  0  0  0  0  0  0  0  0  0
  -10.8027    4.6882    3.5603 N   0  0  0  0  0  0  0  0  0  0  0  0
  -11.9024    5.6400    3.3238 C   0  0  0  0  0  0  0  0  0  0  0  0
  -11.4379    6.8212    2.4594 C   0  0  0  0  0  0  0  0  0  0  0  0
  -10.9898    6.3818    1.0894 C   0  0  0  0  0  0  0  0  0  0  0  0
   -9.7664    6.4716    0.8006 O   0  0  0  0  0  0  0  0  0  0  0  0
  -11.8939    5.8451    0.1080 N   0  0  0  0  0  0  0  0  0  0  0  0
  -13.3536    5.9690    0.1474 C   0  0  0  0  0  0  0  0  0  0  0  0
  -14.0183    4.5916    0.0529 C   0  0  0  0  0  0  0  0  0  0  0  0
  -13.7452    3.9267   -1.2627 C   0  0  0  0  0  0  0  0  0  0  0  0
  -14.1797    4.3742   -2.5014 C   0  0  0  0  0  0  0  0  0  0  0  0
  -13.7309    3.4956   -3.4070 N   0  0  0  0  0  0  0  0  0  0  0  0
  -13.8825    3.4785   -4.7553 C   0  0  0  0  0  0  0  0  0  0  0  0
  -13.2995    2.4231   -5.4720 C   0  0  0  0  0  0  0  0  0  0  0  0
  -12.5846    1.4263   -4.7793 C   0  0  0  0  0  0  0  0  0  0  0  0
  -12.4551    1.4865   -3.3815 C   0  0  0  0  0  0  0  0  0  0  0  0
  -13.0544    2.5580   -2.7224 C   0  0  0  0  0  0  0  0  0  0  0  0
  -13.0359    2.7784   -1.3920 N   0  0  0  0  0  0  0  0  0  0  0  0
   -9.8783    4.9141    4.5556 C   0  0  0  0  0  0  0  0  0  0  0  0
   -9.9519    5.9496    5.2716 O   0  0  0  0  0  0  0  0  0  0  0  0
   -8.8399    3.9900    4.7468 C   0  0  0  0  0  0  0  0  0  0  0  0
  1  3  4  0
  1 14  4  0
  1  2  1  0
  3  4  4  0
  4  5  4  0
  5  6  4  0
  5 22  1  0
  6  7  1  0
  6 14  4  0
  7  8  1  0
  8  9  4  0
  8 12  4  0
  9 10  4  0
 10 11  4  0
 11 12  4  0
 12 13  1  0
 13 14  1  0
 13 15  1  6
 15 16  4  0
 15 20  4  0
 16 17  4  0
 17 18  4  0
 17 21  1  0
 18 19  4  0
 19 20  4  0
 23 24  4  0
 24 25  4  0
 25 26  4  0
 26 27  4  0
 27 28  4  0
 28 29  1  0
 29 30  1  0
 30 31  1  0
 31 32  2  0
 31 33  1  0
 33 34  1  0
 34 35  1  0
 35 36  1  0
 36 37  4  0
 37 38  4  0
 38 39  4  0
 39 40  4  0
 40 41  4  0
 41 42  4  0
 42 43  4  0
 43 44  4  0
 28 45  4  0
 45 46  2  0
 45 47  4  0
 47 25  4  0
 44 36  4  0
 43 38  4  0
  2 23  4  0
  2 47  4  0
M  END
$$$$

     RDKit          3D

 47 54  0  0  0  0  0  0  0  0999 V2000
   -7.6410    4.9930    6.8080 C   0  0  0  0  0  0  0  0  0  1  0  0
   -7.7310    4.0530    5.7140 C   0  0  0  0  0  0  0  0  0  2  0  0
   -6.4520    5.6300    6.8680 N   0  0  0  0  0  0  0  0  0  0  0  0
   -6.2260    6.5240    7.8670 N   0  0  0  0  0  0  0  0  0  0  0  0
   -7.1930    6.7500    8.7820 C   0  0  0  0  0  0  0  0  0  0  0  0
   -8.4240    6.1170    8.7580 C   0  0  0  0  0  0  0  0  0  0  0  0
   -9.3950    6.3570    9.7450 N   0  0  0  0  0  0  0  0  0  0  0  0
  -10.5620    5.6840    9.7600 C   0  0  0  0  0  0  0  0  0  0  0  0
  -11.5770    5.6820   10.5960 N   0  0  0  0  0  0  0  0  0  0  0  0
  -12.4690    4.7490   10.1080 N   0  0  0  0  0  0  0  0  0  0  0  0
  -12.0160    4.1880    8.9920 N   0  0  0  0  0  0  0  0  0  0  0  0
  -10.8400    4.7900    8.7610 N   0  0  0  0  0  0  0  0  0  0  0  0
   -9.9950    4.4790    7.6090 C   0  0  0  0  0  0  0  0  0  0  0  0
   -8.6630    5.2070    7.7200 C   0  0  0  0  0  0  0  0  0  0  0  0
  -10.7490    4.8610    6.3730 C   0  0  0  0  0  0  0  0  0  0  0  0
  -11.0350    6.2020    6.1170 C   0  0  0  0  0  0  0  0  0  0  0  0
  -11.7370    6.5580    4.9650 C   0  0  0  0  0  0  0  0  0  0  0  0
  -12.1550    5.5730    4.0710 C   0  0  0  0  0  0  0  0  0  0  0  0
  -11.8700    4.2310    4.3270 C   0  0  0  0  0  0  0  0  0  0  0  0
  -11.1660    3.8760    5.4790 C   0  0  0  0  0  0  0  0  0  0  0  0
  -12.0160    7.8660    4.7150 O   0  0  0  0  0  0  0  0  0  0  0  0
   -6.8990    7.6510    9.7710 O   0  0  0  0  0  0  0  0  0  0  0  0
   -6.9056    2.9304    5.5202 C   0  0  0  0  0  0  0  0  0  0  0  0
   -7.4048    1.9939    4.2054 S   0  0  0  0  0  0  0  0  0  0  0  0
   -8.7273    2.9569    3.8450 C   0  0  0  0  0  0  0  0  0  0  0  0
   -9.5952    2.7831    2.8252 N   0  0  0  0  0  0  0  0  0  0  0  0
  -10.5996    3.6834    2.6496 C   0  0  0  0  0  0  0  0  0  0  0  0
  -10.7328    4.7636    3.4896 N   0  0  0  0  0  0  0  0  0  0  0  0
  -11.8122    5.7328    3.2384 C   0  0  0  0  0  0  0  0  0  0  0  0
  -11.2834    6.9252    2.4348 C   0  0  0  0  0  0  0  0  0  0  0  0
  -12.3940    7.8684    2.0765 C   0  0  0  0  0  0  0  0  0  0  0  0
  -13.0685    8.4134    2.9951 O   0  0  0  0  0  0  0  0  0  0  0  0
  -12.6714    8.1716    0.7030 N   0  0  0  0  0  0  0  0  0  0  0  0
  -13.8166    8.9967    0.3196 C   0  0  0  0  0  0  0  0  0  0  0  0
  -13.7855    9.3388   -1.1772 C   0  0  0  0  0  0  0  0  0  0  0  0
  -12.6628   10.2624   -1.5758 C   0  0  0  0  0  0  0  0  0  0  0  0
  -11.7176   10.8580   -0.7437 C   0  0  0  0  0  0  0  0  0  0  0  0
  -10.9121   11.5866   -1.5280 N   0  0  0  0  0  0  0  0  0  0  0  0
   -9.8351   12.3420   -1.2057 C   0  0  0  0  0  0  0  0  0  0  0  0
   -9.1549   12.9980   -2.2427 C   0  0  0  0  0  0  0  0  0  0  0  0
   -9.6086   12.8531   -3.5690 C   0  0  0  0  0  0  0  0  0  0  0  0
  -10.7298   12.0580   -3.8532 C   0  0  0  0  0  0  0  0  0  0  0  0
  -11.3645   11.4310   -2.7828 C   0  0  0  0  0  0  0  0  0  0  0  0
  -12.4436   10.6241   -2.8642 N   0  0  0  0  0  0  0  0  0  0  0  0
   -9.8379    4.9575    4.5178 C   0  0  0  0  0  0  0  0  0  0  0  0
   -9.9209    5.9805    5.2507 O   0  0  0  0  0  0  0  0  0  0  0  0
   -8.8154    4.0180    4.7207 C   0  0  0  0  0  0  0  0  0  0  0  0
  1  3  4  0
  1 14  4  0
  1  2  1  0
  3  4  4  0
  4  5  4  0
  5  6  4  0
  5 22  1  0
  6  7  1  0
  6 14  4  0
  7  8  1  0
  8  9  4  0
  8 12  4  0
  9 10  4  0
 10 11  4  0
 11 12  4  0
 12 13  1  0
 13 14  1  0
 13 15  1  6
 15 16  4  0
 15 20  4  0
 16 17  4  0
 17 18  4  0
 17 21  1  0
 18 19  4  0
 19 20  4  0
 23 24  4  0
 24 25  4  0
 25 26  4  0
 26 27  4  0
 27 28  4  0
 28 29  1  0
 29 30  1  0
 30 31  1  0
 31 32  2  0
 31 33  1  0
 33 34  1  0
 34 35  1  0
 35 36  1  0
 36 37  4  0
 37 38  4  0
 38 39  4  0
 39 40  4  0
 40 41  4  0
 41 42  4  0
 42 43  4  0
 43 44  4  0
 28 45  4  0
 45 46  2  0
 45 47  4  0
 47 25  4  0
 44 36  4  0
 43 38  4  0
  2 23  4  0
  2 47  4  0
M  END
$$$$

     RDKit          3D

 47 54  0  0  0  0  0  0  0  0999 V2000
   -7.6410    4.9930    6.8080 C   0  0  0  0  0  0  0  0  0  1  0  0
   -7.7310    4.0530    5.7140 C   0  0  0  0  0  0  0  0  0  2  0  0
   -6.4520    5.6300    6.8680 N   0  0  0  0  0  0  0  0  0  0  0  0
   -6.2260    6.5240    7.8670 N   0  0  0  0  0  0  0  0  0  0  0  0
   -7.1930    6.7500    8.7820 C   0  0  0  0  0  0  0  0  0  0  0  0
   -8.4240    6.1170    8.7580 C   0  0  0  0  0  0  0  0  0  0  0  0
   -9.3950    6.3570    9.7450 N   0  0  0  0  0  0  0  0  0  0  0  0
  -10.5620    5.6840    9.7600 C   0  0  0  0  0  0  0  0  0  0  0  0
  -11.5770    5.6820   10.5960 N   0  0  0  0  0  0  0  0  0  0  0  0
  -12.4690    4.7490   10.1080 N   0  0  0  0  0  0  0  0  0  0  0  0
  -12.0160    4.1880    8.9920 N   0  0  0  0  0  0  0  0  0  0  0  0
  -10.8400    4.7900    8.7610 N   0  0  0  0  0  0  0  0  0  0  0  0
   -9.9950    4.4790    7.6090 C   0  0  0  0  0  0  0  0  0  0  0  0
   -8.6630    5.2070    7.7200 C   0  0  0  0  0  0  0  0  0  0  0  0
  -10.7490    4.8610    6.3730 C   0  0  0  0  0  0  0  0  0  0  0  0
  -11.0350    6.2020    6.1170 C   0  0  0  0  0  0  0  0  0  0  0  0
  -11.7370    6.5580    4.9650 C   0  0  0  0  0  0  0  0  0  0  0  0
  -12.1550    5.5730    4.0710 C   0  0  0  0  0  0  0  0  0  0  0  0
  -11.8700    4.2310    4.3270 C   0  0  0  0  0  0  0  0  0  0  0  0
  -11.1660    3.8760    5.4790 C   0  0  0  0  0  0  0  0  0  0  0  0
  -12.0160    7.8660    4.7150 O   0  0  0  0  0  0  0  0  0  0  0  0
   -6.8990    7.6510    9.7710 O   0  0  0  0  0  0  0  0  0  0  0  0
   -6.8910    2.9462    5.5004 C   0  0  0  0  0  0  0  0  0  0  0  0
   -7.4427    1.9531    4.2475 S   0  0  0  0  0  0  0  0  0  0  0  0
   -8.8083    2.8700    3.9347 C   0  0  0  0  0  0  0  0  0  0  0  0
   -9.7469    2.6235    2.9949 N   0  0  0  0  0  0  0  0  0  0  0  0
  -10.7932    3.4832    2.8643 C   0  0  0  0  0  0  0  0  0  0  0  0
  -10.8901    4.6022    3.6585 N   0  0  0  0  0  0  0  0  0  0  0  0
  -12.0308    5.5144    3.4687 C   0  0  0  0  0  0  0  0  0  0  0  0
  -11.7191    6.5755    2.4045 C   0  0  0  0  0  0  0  0  0  0  0  0
  -11.7889    6.0139    1.0141 C   0  0  0  0  0  0  0  0  0  0  0  0
  -10.7488    5.9942    0.2973 O   0  0  0  0  0  0  0  0  0  0  0  0
  -13.0429    5.5514    0.4869 N   0  0  0  0  0  0  0  0  0  0  0  0
  -13.1933    5.0148   -0.8647 C   0  0  0  0  0  0  0  0  0  0  0  0
  -13.0965    6.1374   -1.9058 C   0  0  0  0  0  0  0  0  0  0  0  0
  -13.4663    5.7083   -3.3007 C   0  0  0  0  0  0  0  0  0  0  0  0
  -13.9225    4.4580   -3.7130 C   0  0  0  0  0  0  0  0  0  0  0  0
  -14.1773    4.5511   -5.0253 N   0  0  0  0  0  0  0  0  0  0  0  0
  -14.6772    3.6277   -5.8852 C   0  0  0  0  0  0  0  0  0  0  0  0
  -14.8720    4.0066   -7.2231 C   0  0  0  0  0  0  0  0  0  0  0  0
  -14.5537    5.3178   -7.6271 C   0  0  0  0  0  0  0  0  0  0  0  0
  -14.0482    6.2418   -6.6979 C   0  0  0  0  0  0  0  0  0  0  0  0
  -13.8741    5.8097   -5.3831 C   0  0  0  0  0  0  0  0  0  0  0  0
  -13.4338    6.5626   -4.3552 N   0  0  0  0  0  0  0  0  0  0  0  0
   -9.9205    4.8717    4.5994 C   0  0  0  0  0  0  0  0  0  0  0  0
   -9.9660    5.9343    5.2778 O   0  0  0  0  0  0  0  0  0  0  0  0
   -8.8669    3.9625    4.7748 C   0  0  0  0  0  0  0  0  0  0  0  0
  1  3  4  0
  1 14  4  0
  1  2  1  0
  3  4  4  0
  4  5  4  0
  5  6  4  0
  5 22  1  0
  6  7  1  0
  6 14  4  0
  7  8  1  0
  8  9  4  0
  8 12  4  0
  9 10  4  0
 10 11  4  0
 11 12  4  0
 12 13  1  0
 13 14  1  0
 13 15  1  6
 15 16  4  0
 15 20  4  0
 16 17  4  0
 17 18  4  0
 17 21  1  0
 18 19  4  0
 19 20  4  0
 23 24  4  0
 24 25  4  0
 25 26  4  0
 26 27  4  0
 27 28  4  0
 28 29  1  0
 29 30  1  0
 30 31  1  0
 31 32  2  0
 31 33  1  0
 33 34  1  0
 34 35  1  0
 35 36  1  0
 36 37  4  0
 37 38  4  0
 38 39  4  0
 39 40  4  0
 40 41  4  0
 41 42  4  0
 42 43  4  0
 43 44  4  0
 28 45  4  0
 45 46  2  0
 45 47  4  0
 47 25  4  0
 44 36  4  0
 43 38  4  0
  2 23  4  0
  2 47  4  0
M  END
$$$$

     RDKit          3D

 34 39  0  0  0  0  0  0  0  0999 V2000
   -7.6410    4.9930    6.8080 C   0  0  0  0  0  0  0  0  0  1  0  0
   -7.7310    4.0530    5.7140 C   0  0  0  0  0  0  0  0  0  2  0  0
   -6.4520    5.6300    6.8680 N   0  0  0  0  0  0  0  0  0  0  0  0
   -6.2260    6.5240    7.8670 N   0  0  0  0  0  0  0  0  0  0  0  0
   -7.1930    6.7500    8.7820 C   0  0  0  0  0  0  0  0  0  0  0  0
   -8.4240    6.1170    8.7580 C   0  0  0  0  0  0  0  0  0  0  0  0
   -9.3950    6.3570    9.7450 N   0  0  0  0  0  0  0  0  0  0  0  0
  -10.5620    5.6840    9.7600 C   0  0  0  0  0  0  0  0  0  0  0  0
  -11.5770    5.6820   10.5960 N   0  0  0  0  0  0  0  0  0  0  0  0
  -12.4690    4.7490   10.1080 N   0  0  0  0  0  0  0  0  0  0  0  0
  -12.0160    4.1880    8.9920 N   0  0  0  0  0  0  0  0  0  0  0  0
  -10.8400    4.7900    8.7610 N   0  0  0  0  0  0  0  0  0  0  0  0
   -9.9950    4.4790    7.6090 C   0  0  0  0  0  0  0  0  0  0  0  0
   -8.6630    5.2070    7.7200 C   0  0  0  0  0  0  0  0  0  0  0  0
  -10.7490    4.8610    6.3730 C   0  0  0  0  0  0  0  0  0  0  0  0
  -11.0350    6.2020    6.1170 C   0  0  0  0  0  0  0  0  0  0  0  0
  -11.7370    6.5580    4.9650 C   0  0  0  0  0  0  0  0  0  0  0  0
  -12.1550    5.5730    4.0710 C   0  0  0  0  0  0  0  0  0  0  0  0
  -11.8700    4.2310    4.3270 C   0  0  0  0  0  0  0  0  0  0  0  0
  -11.1660    3.8760    5.4790 C   0  0  0  0  0  0  0  0  0  0  0  0
  -12.0160    7.8660    4.7150 O   0  0  0  0  0  0  0  0  0  0  0  0
   -6.8990    7.6510    9.7710 O   0  0  0  0  0  0  0  0  0  0  0  0
   -6.8512    3.0239    5.5515 N   0  0  0  0  0  0  0  0  0  0  0  0
   -6.9622    2.0647    4.5963 C   0  0  0  0  0  0  0  0  0  0  0  0
   -6.0160    1.0410    4.4561 C   0  0  0  0  0  0  0  0  0  0  0  0
   -4.8702    0.9648    5.3090 N   0  0  0  0  0  0  0  0  0  0  0  0
   -6.1970    0.0980    3.4922 N   0  0  0  0  0  0  0  0  0  0  0  0
   -7.2730    0.1304    2.6593 C   0  0  0  0  0  0  0  0  0  0  0  0
   -7.4347   -0.8787    1.6659 N   0  0  0  0  0  0  0  0  0  0  0  0
   -8.1978    1.1206    2.7803 N   0  0  0  0  0  0  0  0  0  0  0  0
   -8.0643    2.0818    3.7292 C   0  0  0  0  0  0  0  0  0  0  0  0
   -8.9892    3.0672    3.8450 N   0  0  0  0  0  0  0  0  0  0  0  0
   -8.8825    4.0363    4.7946 C   0  0  0  0  0  0  0  0  0  0  0  0
   -9.8509    5.0909    4.8176 N   0  0  0  0  0  0  0  0  0  0  0  0
  1  3  4  0
  1 14  4  0
  1  2  1  0
  3  4  4  0
  4  5  4  0
  5  6  4  0
  5 22  1  0
  6  7  1  0
  6 14  4  0
  7  8  1  0
  8  9  4  0
  8 12  4  0
  9 10  4  0
 10 11  4  0
 11 12  4  0
 12 13  1  0
 13 14  1  0
 13 15  1  6
 15 16  4  0
 15 20  4  0
 16 17  4  0
 17 18  4  0
 17 21  1  0
 18 19  4  0
 19 20  4  0
 23 24  4  0
 24 25  4  0
 25 26  1  0
 25 27  4  0
 27 28  4  0
 28 29  1  0
 28 30  4  0
 30 31  4  0
 31 32  4  0
 32 33  4  0
 33 34  1  0
 31 24  4  0
  2 23  4  0
  2 33  4  0
M  END
$$$$

     RDKit          3D

 40 45  0  0  0  0  0  0  0  0999 V2000
   -7.6410    4.9930    6.8080 C   0  0  0  0  0  0  0  0  0  1  0  0
   -7.7310    4.0530    5.7140 C   0  0  0  0  0  0  0  0  0  2  0  0
   -6.4520    5.6300    6.8680 N   0  0  0  0  0  0  0  0  0  0  0  0
   -6.2260    6.5240    7.8670 N   0  0  0  0  0  0  0  0  0  0  0  0
   -7.1930    6.7500    8.7820 C   0  0  0  0  0  0  0  0  0  0  0  0
   -8.4240    6.1170    8.7580 C   0  0  0  0  0  0  0  0  0  0  0  0
   -9.3950    6.3570    9.7450 N   0  0  0  0  0  0  0  0  0  0  0  0
  -10.5620    5.6840    9.7600 C   0  0  0  0  0  0  0  0  0  0  0  0
  -11.5770    5.6820   10.5960 N   0  0  0  0  0  0  0  0  0  0  0  0
  -12.4690    4.7490   10.1080 N   0  0  0  0  0  0  0  0  0  0  0  0
  -12.0160    4.1880    8.9920 N   0  0  0  0  0  0  0  0  0  0  0  0
  -10.8400    4.7900    8.7610 N   0  0  0  0  0  0  0  0  0  0  0  0
   -9.9950    4.4790    7.6090 C   0  0  0  0  0  0  0  0  0  0  0  0
   -8.6630    5.2070    7.7200 C   0  0  0  0  0  0  0  0  0  0  0  0
  -10.7490    4.8610    6.3730 C   0  0  0  0  0  0  0  0  0  0  0  0
  -11.0350    6.2020    6.1170 C   0  0  0  0  0  0  0  0  0  0  0  0
  -11.7370    6.5580    4.9650 C   0  0  0  0  0  0  0  0  0  0  0  0
  -12.1550    5.5730    4.0710 C   0  0  0  0  0  0  0  0  0  0  0  0
  -11.8700    4.2310    4.3270 C   0  0  0  0  0  0  0  0  0  0  0  0
  -11.1660    3.8760    5.4790 C   0  0  0  0  0  0  0  0  0  0  0  0
  -12.0160    7.8660    4.7150 O   0  0  0  0  0  0  0  0  0  0  0  0
   -6.8990    7.6510    9.7710 O   0  0  0  0  0  0  0  0  0  0  0  0
   -7.0524    2.8954    5.5224 N   0  0  0  0  0  0  0  0  0  0  0  0
   -7.5171    2.2606    4.4556 N   0  0  0  0  0  0  0  0  0  0  0  0
   -8.5427    2.9917    3.9813 C   0  0  0  0  0  0  0  0  0  0  0  0
   -9.4838    2.5433    2.5161 S   0  0  0  0  0  0  0  0  0  0  0  0
   -8.3592    3.2796    1.2525 C   0  0  0  0  0  0  0  0  0  0  0  0
   -8.1445    4.7567    1.5279 C   0  0  0  0  0  0  0  0  0  0  0  0
   -7.2120    5.0992    2.3082 O   0  0  0  0  0  0  0  0  0  0  0  0
   -8.9771    5.7776    0.9326 N   0  0  0  0  0  0  0  0  0  0  0  0
  -10.2292    5.4272    0.2431 C   0  0  0  0  0  0  0  0  0  0  0  0
  -11.1789    6.6256    0.1969 C   0  0  0  0  0  0  0  0  0  0  0  0
  -10.5156    7.7720   -0.2950 O   0  0  0  0  0  0  0  0  0  0  0  0
   -9.5243    8.1698    0.6283 C   0  0  0  0  0  0  0  0  0  0  0  0
   -8.4136    7.1191    0.7233 C   0  0  0  0  0  0  0  0  0  0  0  0
   -7.0223    2.4972    1.0964 C   0  0  0  0  0  0  0  0  0  0  0  0
   -7.2684    0.9985    0.8522 C   0  0  0  0  0  0  0  0  0  0  0  0
   -6.1862    3.0638   -0.0654 C   0  0  0  0  0  0  0  0  0  0  0  0
   -8.7699    4.0811    4.7435 N   0  0  0  0  0  0  0  0  0  0  0  0
   -9.6988    5.1847    4.4986 C   0  0  0  0  0  0  0  0  0  0  0  0
  1  3  4  0
  1 14  4  0
  1  2  1  0
  3  4  4  0
  4  5  4  0
  5  6  4  0
  5 22  1  0
  6  7  1  0
  6 14  4  0
  7  8  1  0
  8  9  4  0
  8 12  4  0
  9 10  4  0
 10 11  4  0
 11 12  4  0
 12 13  1  0
 13 14  1  0
 13 15  1  6
 15 16  4  0
 15 20  4  0
 16 17  4  0
 17 18  4  0
 17 21  1  0
 18 19  4  0
 19 20  4  0
 23 24  4  0
 24 25  4  0
 25 26  1  0
 26 27  1  0
 27 28  1  0
 28 29  2  0
 28 30  1  0
 30 31  1  0
 31 32  1  0
 32 33  1  0
 33 34  1  0
 34 35  1  0
 27 36  1  0
 36 37  1  0
 36 38  1  0
 25 39  4  0
 39 40  1  0
 35 30  1  0
  2 23  4  0
  2 39  4  0
M  END
$$$$

     RDKit          3D

 40 45  0  0  0  0  0  0  0  0999 V2000
   -7.6410    4.9930    6.8080 C   0  0  0  0  0  0  0  0  0  1  0  0
   -7.7310    4.0530    5.7140 C   0  0  0  0  0  0  0  0  0  2  0  0
   -6.4520    5.6300    6.8680 N   0  0  0  0  0  0  0  0  0  0  0  0
   -6.2260    6.5240    7.8670 N   0  0  0  0  0  0  0  0  0  0  0  0
   -7.1930    6.7500    8.7820 C   0  0  0  0  0  0  0  0  0  0  0  0
   -8.4240    6.1170    8.7580 C   0  0  0  0  0  0  0  0  0  0  0  0
   -9.3950    6.3570    9.7450 N   0  0  0  0  0  0  0  0  0  0  0  0
  -10.5620    5.6840    9.7600 C   0  0  0  0  0  0  0  0  0  0  0  0
  -11.5770    5.6820   10.5960 N   0  0  0  0  0  0  0  0  0  0  0  0
  -12.4690    4.7490   10.1080 N   0  0  0  0  0  0  0  0  0  0  0  0
  -12.0160    4.1880    8.9920 N   0  0  0  0  0  0  0  0  0  0  0  0
  -10.8400    4.7900    8.7610 N   0  0  0  0  0  0  0  0  0  0  0  0
   -9.9950    4.4790    7.6090 C   0  0  0  0  0  0  0  0  0  0  0  0
   -8.6630    5.2070    7.7200 C   0  0  0  0  0  0  0  0  0  0  0  0
  -10.7490    4.8610    6.3730 C   0  0  0  0  0  0  0  0  0  0  0  0
  -11.0350    6.2020    6.1170 C   0  0  0  0  0  0  0  0  0  0  0  0
  -11.7370    6.5580    4.9650 C   0  0  0  0  0  0  0  0  0  0  0  0
  -12.1550    5.5730    4.0710 C   0  0  0  0  0  0  0  0  0  0  0  0
  -11.8700    4.2310    4.3270 C   0  0  0  0  0  0  0  0  0  0  0  0
  -11.1660    3.8760    5.4790 C   0  0  0  0  0  0  0  0  0  0  0  0
  -12.0160    7.8660    4.7150 O   0  0  0  0  0  0  0  0  0  0  0  0
   -6.8990    7.6510    9.7710 O   0  0  0  0  0  0  0  0  0  0  0  0
   -6.9162    3.0348    5.3822 N   0  0  0  0  0  0  0  0  0  0  0  0
   -7.4229    2.3367    4.3765 N   0  0  0  0  0  0  0  0  0  0  0  0
   -8.6124    2.8900    4.0768 C   0  0  0  0  0  0  0  0  0  0  0  0
   -9.6863    2.2845    2.7693 S   0  0  0  0  0  0  0  0  0  0  0  0
   -8.9962    3.3476    1.4340 C   0  0  0  0  0  0  0  0  0  0  0  0
  -10.1307    4.0961    0.7653 C   0  0  0  0  0  0  0  0  0  0  0  0
  -10.2768    5.3191    1.0405 O   0  0  0  0  0  0  0  0  0  0  0  0
  -10.9782    3.4959   -0.2394 N   0  0  0  0  0  0  0  0  0  0  0  0
  -11.6097    2.1872   -0.0296 C   0  0  0  0  0  0  0  0  0  0  0  0
  -11.9416    1.5421   -1.3795 C   0  0  0  0  0  0  0  0  0  0  0  0
  -12.6852    2.4264   -2.1948 O   0  0  0  0  0  0  0  0  0  0  0  0
  -11.8941    3.5533   -2.5168 C   0  0  0  0  0  0  0  0  0  0  0  0
  -11.5729    4.3660   -1.2602 C   0  0  0  0  0  0  0  0  0  0  0  0
   -8.1333    2.5429    0.4181 C   0  0  0  0  0  0  0  0  0  0  0  0
   -6.9581    1.8365    1.1126 C   0  0  0  0  0  0  0  0  0  0  0  0
   -7.5825    3.4537   -0.6947 C   0  0  0  0  0  0  0  0  0  0  0  0
   -8.8854    3.9408    4.8735 N   0  0  0  0  0  0  0  0  0  0  0  0
  -10.0526    4.8151    4.8208 C   0  0  0  0  0  0  0  0  0  0  0  0
  1  3  4  0
  1 14  4  0
  1  2  1  0
  3  4  4  0
  4  5  4  0
  5  6  4  0
  5 22  1  0
  6  7  1  0
  6 14  4  0
  7  8  1  0
  8  9  4  0
  8 12  4  0
  9 10  4  0
 10 11  4  0
 11 12  4  0
 12 13  1  0
 13 14  1  0
 13 15  1  6
 15 16  4  0
 15 20  4  0
 16 17  4  0
 17 18  4  0
 17 21  1  0
 18 19  4  0
 19 20  4  0
 23 24  4  0
 24 25  4  0
 25 26  1  0
 26 27  1  0
 27 28  1  0
 28 29  2  0
 28 30  1  0
 30 31  1  0
 31 32  1  0
 32 33  1  0
 33 34  1  0
 34 35  1  0
 27 36  1  0
 36 37  1  0
 36 38  1  0
 25 39  4  0
 39 40  1  0
 35 30  1  0
  2 23  4  0
  2 39  4  0
M  END
$$$$

     RDKit          3D

 41 46  0  0  0  0  0  0  0  0999 V2000
   -7.6410    4.9930    6.8080 C   0  0  0  0  0  0  0  0  0  1  0  0
   -7.7310    4.0530    5.7140 C   0  0  0  0  0  0  0  0  0  2  0  0
   -6.4520    5.6300    6.8680 N   0  0  0  0  0  0  0  0  0  0  0  0
   -6.2260    6.5240    7.8670 N   0  0  0  0  0  0  0  0  0  0  0  0
   -7.1930    6.7500    8.7820 C   0  0  0  0  0  0  0  0  0  0  0  0
   -8.4240    6.1170    8.7580 C   0  0  0  0  0  0  0  0  0  0  0  0
   -9.3950    6.3570    9.7450 N   0  0  0  0  0  0  0  0  0  0  0  0
  -10.5620    5.6840    9.7600 C   0  0  0  0  0  0  0  0  0  0  0  0
  -11.5770    5.6820   10.5960 N   0  0  0  0  0  0  0  0  0  0  0  0
  -12.4690    4.7490   10.1080 N   0  0  0  0  0  0  0  0  0  0  0  0
  -12.0160    4.1880    8.9920 N   0  0  0  0  0  0  0  0  0  0  0  0
  -10.8400    4.7900    8.7610 N   0  0  0  0  0  0  0  0  0  0  0  0
   -9.9950    4.4790    7.6090 C   0  0  0  0  0  0  0  0  0  0  0  0
   -8.6630    5.2070    7.7200 C   0  0  0  0  0  0  0  0  0  0  0  0
  -10.7490    4.8610    6.3730 C   0  0  0  0  0  0  0  0  0  0  0  0
  -11.0350    6.2020    6.1170 C   0  0  0  0  0  0  0  0  0  0  0  0
  -11.7370    6.5580    4.9650 C   0  0  0  0  0  0  0  0  0  0  0  0
  -12.1550    5.5730    4.0710 C   0  0  0  0  0  0  0  0  0  0  0  0
  -11.8700    4.2310    4.3270 C   0  0  0  0  0  0  0  0  0  0  0  0
  -11.1660    3.8760    5.4790 C   0  0  0  0  0  0  0  0  0  0  0  0
  -12.0160    7.8660    4.7150 O   0  0  0  0  0  0  0  0  0  0  0  0
   -6.8990    7.6510    9.7710 O   0  0  0  0  0  0  0  0  0  0  0  0
   -6.9637    2.9852    5.4104 N   0  0  0  0  0  0  0  0  0  0  0  0
   -7.4901    2.2986    4.4033 N   0  0  0  0  0  0  0  0  0  0  0  0
   -8.6510    2.9015    4.0814 C   0  0  0  0  0  0  0  0  0  0  0  0
   -9.7132    2.3701    2.7371 S   0  0  0  0  0  0  0  0  0  0  0  0
  -10.7905    1.3380    3.7981 C   0  0  0  0  0  0  0  0  0  0  0  0
  -12.0313    0.9011    3.0208 C   0  0  0  0  0  0  0  0  0  0  0  0
  -10.0619    0.1416    4.3671 C   0  0  0  0  0  0  0  0  0  0  0  0
   -9.8543    0.0998    5.6105 O   0  0  0  0  0  0  0  0  0  0  0  0
   -9.6712   -0.9810    3.5503 N   0  0  0  0  0  0  0  0  0  0  0  0
   -8.8817   -0.7507    2.3339 C   0  0  0  0  0  0  0  0  0  0  0  0
   -9.9211   -2.3436    4.0593 C   0  0  0  0  0  0  0  0  0  0  0  0
   -8.6221   -3.0457    4.5014 C   0  0  0  0  0  0  0  0  0  0  0  0
   -8.9129   -4.5380    4.6389 C   0  0  0  0  0  0  0  0  0  0  0  0
  -10.1775   -4.8802    3.4501 S   0  0  0  0  0  0  0  0  0  0  0  0
   -9.6282   -5.6110    2.2576 O   0  0  0  0  0  0  0  0  0  0  0  0
  -11.3180   -5.6428    4.0629 O   0  0  0  0  0  0  0  0  0  0  0  0
  -10.6479   -3.2272    3.0359 C   0  0  0  0  0  0  0  0  0  0  0  0
   -8.8787    3.9645    4.8695 N   0  0  0  0  0  0  0  0  0  0  0  0
   -9.8904    4.9276    4.7302 N   0  0  0  0  0  0  0  0  0  0  0  0
  1  3  4  0
  1 14  4  0
  1  2  1  0
  3  4  4  0
  4  5  4  0
  5  6  4  0
  5 22  1  0
  6  7  1  0
  6 14  4  0
  7  8  1  0
  8  9  4  0
  8 12  4  0
  9 10  4  0
 10 11  4  0
 11 12  4  0
 12 13  1  0
 13 14  1  0
 13 15  1  6
 15 16  4  0
 15 20  4  0
 16 17  4  0
 17 18  4  0
 17 21  1  0
 18 19  4  0
 19 20  4  0
 23 24  4  0
 24 25  4  0
 25 26  1  0
 26 27  1  0
 27 28  1  0
 27 29  1  0
 29 30  2  0
 29 31  1  0
 31 32  1  0
 31 33  1  0
 33 34  1  0
 34 35  1  0
 35 36  1  0
 36 37  2  0
 36 38  2  0
 36 39  1  0
 25 40  4  0
 40 41  1  0
 39 33  1  0
  2 23  4  0
  2 40  4  0
M  END
$$$$

     RDKit          3D

 41 46  0  0  0  0  0  0  0  0999 V2000
   -7.6410    4.9930    6.8080 C   0  0  0  0  0  0  0  0  0  1  0  0
   -7.7310    4.0530    5.7140 C   0  0  0  0  0  0  0  0  0  2  0  0
   -6.4520    5.6300    6.8680 N   0  0  0  0  0  0  0  0  0  0  0  0
   -6.2260    6.5240    7.8670 N   0  0  0  0  0  0  0  0  0  0  0  0
   -7.1930    6.7500    8.7820 C   0  0  0  0  0  0  0  0  0  0  0  0
   -8.4240    6.1170    8.7580 C   0  0  0  0  0  0  0  0  0  0  0  0
   -9.3950    6.3570    9.7450 N   0  0  0  0  0  0  0  0  0  0  0  0
  -10.5620    5.6840    9.7600 C   0  0  0  0  0  0  0  0  0  0  0  0
  -11.5770    5.6820   10.5960 N   0  0  0  0  0  0  0  0  0  0  0  0
  -12.4690    4.7490   10.1080 N   0  0  0  0  0  0  0  0  0  0  0  0
  -12.0160    4.1880    8.9920 N   0  0  0  0  0  0  0  0  0  0  0  0
  -10.8400    4.7900    8.7610 N   0  0  0  0  0  0  0  0  0  0  0  0
   -9.9950    4.4790    7.6090 C   0  0  0  0  0  0  0  0  0  0  0  0
   -8.6630    5.2070    7.7200 C   0  0  0  0  0  0  0  0  0  0  0  0
  -10.7490    4.8610    6.3730 C   0  0  0  0  0  0  0  0  0  0  0  0
  -11.0350    6.2020    6.1170 C   0  0  0  0  0  0  0  0  0  0  0  0
  -11.7370    6.5580    4.9650 C   0  0  0  0  0  0  0  0  0  0  0  0
  -12.1550    5.5730    4.0710 C   0  0  0  0  0  0  0  0  0  0  0  0
  -11.8700    4.2310    4.3270 C   0  0  0  0  0  0  0  0  0  0  0  0
  -11.1660    3.8760    5.4790 C   0  0  0  0  0  0  0  0  0  0  0  0
  -12.0160    7.8660    4.7150 O   0  0  0  0  0  0  0  0  0  0  0  0
   -6.8990    7.6510    9.7710 O   0  0  0  0  0  0  0  0  0  0  0  0
   -6.8683    3.1226    5.2785 N   0  0  0  0  0  0  0  0  0  0  0  0
   -7.3770    2.4475    4.2555 N   0  0  0  0  0  0  0  0  0  0  0  0
   -8.6218    2.9206    4.0516 C   0  0  0  0  0  0  0  0  0  0  0  0
   -9.6892    2.3797    2.7121 S   0  0  0  0  0  0  0  0  0  0  0  0
  -10.5546    1.0145    3.5908 C   0  0  0  0  0  0  0  0  0  0  0  0
  -11.2859    1.4910    4.8534 C   0  0  0  0  0  0  0  0  0  0  0  0
   -9.6106   -0.1320    3.8877 C   0  0  0  0  0  0  0  0  0  0  0  0
   -8.7534   -0.0060    4.8074 O   0  0  0  0  0  0  0  0  0  0  0  0
   -9.6636   -1.3638    3.1383 N   0  0  0  0  0  0  0  0  0  0  0  0
  -10.9749   -1.9445    2.8000 C   0  0  0  0  0  0  0  0  0  0  0  0
   -8.4069   -2.1055    2.8977 C   0  0  0  0  0  0  0  0  0  0  0  0
   -8.2400   -2.5197    1.4207 C   0  0  0  0  0  0  0  0  0  0  0  0
   -7.1343   -3.5753    1.3484 C   0  0  0  0  0  0  0  0  0  0  0  0
   -7.2054   -4.4371    2.8971 S   0  0  0  0  0  0  0  0  0  0  0  0
   -7.8023   -5.8088    2.7436 O   0  0  0  0  0  0  0  0  0  0  0  0
   -5.8511   -4.5158    3.5469 O   0  0  0  0  0  0  0  0  0  0  0  0
   -8.2905   -3.3556    3.7843 C   0  0  0  0  0  0  0  0  0  0  0  0
   -8.9153    3.8997    4.9232 N   0  0  0  0  0  0  0  0  0  0  0  0
  -10.0176    4.7724    4.8734 N   0  0  0  0  0  0  0  0  0  0  0  0
  1  3  4  0
  1 14  4  0
  1  2  1  0
  3  4  4  0
  4  5  4  0
  5  6  4  0
  5 22  1  0
  6  7  1  0
  6 14  4  0
  7  8  1  0
  8  9  4  0
  8 12  4  0
  9 10  4  0
 10 11  4  0
 11 12  4  0
 12 13  1  0
 13 14  1  0
 13 15  1  6
 15 16  4  0
 15 20  4  0
 16 17  4  0
 17 18  4  0
 17 21  1  0
 18 19  4  0
 19 20  4  0
 23 24  4  0
 24 25  4  0
 25 26  1  0
 26 27  1  0
 27 28  1  0
 27 29  1  0
 29 30  2  0
 29 31  1  0
 31 32  1  0
 31 33  1  0
 33 34  1  0
 34 35  1  0
 35 36  1  0
 36 37  2  0
 36 38  2  0
 36 39  1  0
 25 40  4  0
 40 41  1  0
 39 33  1  0
  2 23  4  0
  2 40  4  0
M  END
$$$$

     RDKit          3D

 44 50  0  0  0  0  0  0  0  0999 V2000
   -7.6410    4.9930    6.8080 C   0  0  0  0  0  0  0  0  0  1  0  0
   -7.7310    4.0530    5.7140 C   0  0  0  0  0  0  0  0  0  2  0  0
   -6.4520    5.6300    6.8680 N   0  0  0  0  0  0  0  0  0  0  0  0
   -6.2260    6.5240    7.8670 N   0  0  0  0  0  0  0  0  0  0  0  0
   -7.1930    6.7500    8.7820 C   0  0  0  0  0  0  0  0  0  0  0  0
   -8.4240    6.1170    8.7580 C   0  0  0  0  0  0  0  0  0  0  0  0
   -9.3950    6.3570    9.7450 N   0  0  0  0  0  0  0  0  0  0  0  0
  -10.5620    5.6840    9.7600 C   0  0  0  0  0  0  0  0  0  0  0  0
  -11.5770    5.6820   10.5960 N   0  0  0  0  0  0  0  0  0  0  0  0
  -12.4690    4.7490   10.1080 N   0  0  0  0  0  0  0  0  0  0  0  0
  -12.0160    4.1880    8.9920 N   0  0  0  0  0  0  0  0  0  0  0  0
  -10.8400    4.7900    8.7610 N   0  0  0  0  0  0  0  0  0  0  0  0
   -9.9950    4.4790    7.6090 C   0  0  0  0  0  0  0  0  0  0  0  0
   -8.6630    5.2070    7.7200 C   0  0  0  0  0  0  0  0  0  0  0  0
  -10.7490    4.8610    6.3730 C   0  0  0  0  0  0  0  0  0  0  0  0
  -11.0350    6.2020    6.1170 C   0  0  0  0  0  0  0  0  0  0  0  0
  -11.7370    6.5580    4.9650 C   0  0  0  0  0  0  0  0  0  0  0  0
  -12.1550    5.5730    4.0710 C   0  0  0  0  0  0  0  0  0  0  0  0
  -11.8700    4.2310    4.3270 C   0  0  0  0  0  0  0  0  0  0  0  0
  -11.1660    3.8760    5.4790 C   0  0  0  0  0  0  0  0  0  0  0  0
  -12.0160    7.8660    4.7150 O   0  0  0  0  0  0  0  0  0  0  0  0
   -6.8990    7.6510    9.7710 O   0  0  0  0  0  0  0  0  0  0  0  0
   -6.9057    2.9317    5.5155 C   0  0  0  0  0  0  0  0  0  0  0  0
   -7.4071    1.9974    4.1983 S   0  0  0  0  0  0  0  0  0  0  0  0
   -8.7299    2.9591    3.8408 C   0  0  0  0  0  0  0  0  0  0  0  0
   -9.5967    2.7919    2.8152 N   0  0  0  0  0  0  0  0  0  0  0  0
  -10.5932    3.7034    2.6407 C   0  0  0  0  0  0  0  0  0  0  0  0
  -11.7342    3.5227    1.2682 S   0  0  0  0  0  0  0  0  0  0  0  0
  -10.6225    4.2651    0.0191 C   0  0  0  0  0  0  0  0  0  0  0  0
  -10.2186    5.6617    0.3873 C   0  0  0  0  0  0  0  0  0  0  0  0
   -8.9933    5.9473    0.4679 O   0  0  0  0  0  0  0  0  0  0  0  0
  -11.2186    6.6684    0.6066 N   0  0  0  0  0  0  0  0  0  0  0  0
  -10.9885    7.8990    1.3173 C   0  0  0  0  0  0  0  0  0  0  0  0
  -11.8060    9.0086    1.0502 C   0  0  0  0  0  0  0  0  0  0  0  0
  -11.6313   10.2054    1.7544 C   0  0  0  0  0  0  0  0  0  0  0  0
  -12.6527   11.5876    1.4025 Cl  0  0  0  0  0  0  0  0  0  0  0  0
  -10.6479   10.2977    2.7439 C   0  0  0  0  0  0  0  0  0  0  0  0
   -9.8410    9.1935    3.0330 C   0  0  0  0  0  0  0  0  0  0  0  0
   -8.6288    9.2976    4.2973 Cl  0  0  0  0  0  0  0  0  0  0  0  0
  -10.0097    7.9988    2.3253 C   0  0  0  0  0  0  0  0  0  0  0  0
  -10.7126    4.7685    3.4911 N   0  0  0  0  0  0  0  0  0  0  0  0
   -9.8373    4.9576    4.5216 C   0  0  0  0  0  0  0  0  0  0  0  0
   -9.9470    5.9750    5.2564 O   0  0  0  0  0  0  0  0  0  0  0  0
   -8.8153    4.0191    4.7224 C   0  0  0  0  0  0  0  0  0  0  0  0
  1  3  4  0
  1 14  4  0
  1  2  1  0
  3  4  4  0
  4  5  4  0
  5  6  4  0
  5 22  1  0
  6  7  1  0
  6 14  4  0
  7  8  1  0
  8  9  4  0
  8 12  4  0
  9 10  4  0
 10 11  4  0
 11 12  4  0
 12 13  1  0
 13 14  1  0
 13 15  1  6
 15 16  4  0
 15 20  4  0
 16 17  4  0
 17 18  4  0
 17 21  1  0
 18 19  4  0
 19 20  4  0
 23 24  4  0
 24 25  4  0
 25 26  4  0
 26 27  4  0
 27 28  1  0
 28 29  1  0
 29 30  1  0
 30 31  2  0
 30 32  1  0
 32 33  1  0
 33 34  4  0
 34 35  4  0
 35 36  1  0
 35 37  4  0
 37 38  4  0
 38 39  1  0
 38 40  4  0
 27 41  4  0
 41 42  4  0
 42 43  2  0
 42 44  4  0
 44 25  4  0
 40 33  4  0
  2 23  4  0
  2 44  4  0
M  END
$$$$

     RDKit          3D

 44 50  0  0  0  0  0  0  0  0999 V2000
   -7.6410    4.9930    6.8080 C   0  0  0  0  0  0  0  0  0  1  0  0
   -7.7310    4.0530    5.7140 C   0  0  0  0  0  0  0  0  0  2  0  0
   -6.4520    5.6300    6.8680 N   0  0  0  0  0  0  0  0  0  0  0  0
   -6.2260    6.5240    7.8670 N   0  0  0  0  0  0  0  0  0  0  0  0
   -7.1930    6.7500    8.7820 C   0  0  0  0  0  0  0  0  0  0  0  0
   -8.4240    6.1170    8.7580 C   0  0  0  0  0  0  0  0  0  0  0  0
   -9.3950    6.3570    9.7450 N   0  0  0  0  0  0  0  0  0  0  0  0
  -10.5620    5.6840    9.7600 C   0  0  0  0  0  0  0  0  0  0  0  0
  -11.5770    5.6820   10.5960 N   0  0  0  0  0  0  0  0  0  0  0  0
  -12.4690    4.7490   10.1080 N   0  0  0  0  0  0  0  0  0  0  0  0
  -12.0160    4.1880    8.9920 N   0  0  0  0  0  0  0  0  0  0  0  0
  -10.8400    4.7900    8.7610 N   0  0  0  0  0  0  0  0  0  0  0  0
   -9.9950    4.4790    7.6090 C   0  0  0  0  0  0  0  0  0  0  0  0
   -8.6630    5.2070    7.7200 C   0  0  0  0  0  0  0  0  0  0  0  0
  -10.7490    4.8610    6.3730 C   0  0  0  0  0  0  0  0  0  0  0  0
  -11.0350    6.2020    6.1170 C   0  0  0  0  0  0  0  0  0  0  0  0
  -11.7370    6.5580    4.9650 C   0  0  0  0  0  0  0  0  0  0  0  0
  -12.1550    5.5730    4.0710 C   0  0  0  0  0  0  0  0  0  0  0  0
  -11.8700    4.2310    4.3270 C   0  0  0  0  0  0  0  0  0  0  0  0
  -11.1660    3.8760    5.4790 C   0  0  0  0  0  0  0  0  0  0  0  0
  -12.0160    7.8660    4.7150 O   0  0  0  0  0  0  0  0  0  0  0  0
   -6.8990    7.6510    9.7710 O   0  0  0  0  0  0  0  0  0  0  0  0
   -6.8509    2.9844    5.4666 C   0  0  0  0  0  0  0  0  0  0  0  0
   -7.3873    1.9847    4.2138 S   0  0  0  0  0  0  0  0  0  0  0  0
   -8.7936    2.8507    3.9407 C   0  0  0  0  0  0  0  0  0  0  0  0
   -9.7377    2.5798    3.0114 N   0  0  0  0  0  0  0  0  0  0  0  0
  -10.8148    3.4069    2.9053 C   0  0  0  0  0  0  0  0  0  0  0  0
  -12.0896    3.0422    1.7013 S   0  0  0  0  0  0  0  0  0  0  0  0
  -13.1219    2.1046    2.8824 C   0  0  0  0  0  0  0  0  0  0  0  0
  -13.9160    1.0627    2.1477 C   0  0  0  0  0  0  0  0  0  0  0  0
  -15.1728    1.1484    2.1377 O   0  0  0  0  0  0  0  0  0  0  0  0
  -13.2821   -0.0085    1.4285 N   0  0  0  0  0  0  0  0  0  0  0  0
  -11.8818   -0.3012    1.5187 C   0  0  0  0  0  0  0  0  0  0  0  0
  -11.0946   -0.2921    0.3595 C   0  0  0  0  0  0  0  0  0  0  0  0
   -9.7229   -0.5610    0.4373 C   0  0  0  0  0  0  0  0  0  0  0  0
   -8.7391   -0.5311   -1.0170 Cl  0  0  0  0  0  0  0  0  0  0  0  0
   -9.1387   -0.8594    1.6735 C   0  0  0  0  0  0  0  0  0  0  0  0
   -9.9275   -0.9124    2.8269 C   0  0  0  0  0  0  0  0  0  0  0  0
   -9.2041   -1.3240    4.3720 Cl  0  0  0  0  0  0  0  0  0  0  0  0
  -11.2972   -0.6414    2.7489 C   0  0  0  0  0  0  0  0  0  0  0  0
  -10.9232    4.5082    3.7093 N   0  0  0  0  0  0  0  0  0  0  0  0
   -9.9763    4.7962    4.6518 C   0  0  0  0  0  0  0  0  0  0  0  0
  -10.0836    5.8408    5.3490 O   0  0  0  0  0  0  0  0  0  0  0  0
   -8.8829    3.9287    4.8002 C   0  0  0  0  0  0  0  0  0  0  0  0
  1  3  4  0
  1 14  4  0
  1  2  1  0
  3  4  4  0
  4  5  4  0
  5  6  4  0
  5 22  1  0
  6  7  1  0
  6 14  4  0
  7  8  1  0
  8  9  4  0
  8 12  4  0
  9 10  4  0
 10 11  4  0
 11 12  4  0
 12 13  1  0
 13 14  1  0
 13 15  1  6
 15 16  4  0
 15 20  4  0
 16 17  4  0
 17 18  4  0
 17 21  1  0
 18 19  4  0
 19 20  4  0
 23 24  4  0
 24 25  4  0
 25 26  4  0
 26 27  4  0
 27 28  1  0
 28 29  1  0
 29 30  1  0
 30 31  2  0
 30 32  1  0
 32 33  1  0
 33 34  4  0
 34 35  4  0
 35 36  1  0
 35 37  4  0
 37 38  4  0
 38 39  1  0
 38 40  4  0
 27 41  4  0
 41 42  4  0
 42 43  2  0
 42 44  4  0
 44 25  4  0
 40 33  4  0
  2 23  4  0
  2 44  4  0
M  END
$$$$

     RDKit          3D

 44 50  0  0  0  0  0  0  0  0999 V2000
   -7.6410    4.9930    6.8080 C   0  0  0  0  0  0  0  0  0  1  0  0
   -7.7310    4.0530    5.7140 C   0  0  0  0  0  0  0  0  0  2  0  0
   -6.4520    5.6300    6.8680 N   0  0  0  0  0  0  0  0  0  0  0  0
   -6.2260    6.5240    7.8670 N   0  0  0  0  0  0  0  0  0  0  0  0
   -7.1930    6.7500    8.7820 C   0  0  0  0  0  0  0  0  0  0  0  0
   -8.4240    6.1170    8.7580 C   0  0  0  0  0  0  0  0  0  0  0  0
   -9.3950    6.3570    9.7450 N   0  0  0  0  0  0  0  0  0  0  0  0
  -10.5620    5.6840    9.7600 C   0  0  0  0  0  0  0  0  0  0  0  0
  -11.5770    5.6820   10.5960 N   0  0  0  0  0  0  0  0  0  0  0  0
  -12.4690    4.7490   10.1080 N   0  0  0  0  0  0  0  0  0  0  0  0
  -12.0160    4.1880    8.9920 N   0  0  0  0  0  0  0  0  0  0  0  0
  -10.8400    4.7900    8.7610 N   0  0  0  0  0  0  0  0  0  0  0  0
   -9.9950    4.4790    7.6090 C   0  0  0  0  0  0  0  0  0  0  0  0
   -8.6630    5.2070    7.7200 C   0  0  0  0  0  0  0  0  0  0  0  0
  -10.7490    4.8610    6.3730 C   0  0  0  0  0  0  0  0  0  0  0  0
  -11.0350    6.2020    6.1170 C   0  0  0  0  0  0  0  0  0  0  0  0
  -11.7370    6.5580    4.9650 C   0  0  0  0  0  0  0  0  0  0  0  0
  -12.1550    5.5730    4.0710 C   0  0  0  0  0  0  0  0  0  0  0  0
  -11.8700    4.2310    4.3270 C   0  0  0  0  0  0  0  0  0  0  0  0
  -11.1660    3.8760    5.4790 C   0  0  0  0  0  0  0  0  0  0  0  0
  -12.0160    7.8660    4.7150 O   0  0  0  0  0  0  0  0  0  0  0  0
   -6.8990    7.6510    9.7710 O   0  0  0  0  0  0  0  0  0  0  0  0
   -6.8889    2.9476    5.5018 C   0  0  0  0  0  0  0  0  0  0  0  0
   -7.4048    1.9897    4.2077 S   0  0  0  0  0  0  0  0  0  0  0  0
   -8.7551    2.9215    3.8758 C   0  0  0  0  0  0  0  0  0  0  0  0
   -9.6531    2.7165    2.8854 N   0  0  0  0  0  0  0  0  0  0  0  0
  -10.6798    3.5977    2.7341 C   0  0  0  0  0  0  0  0  0  0  0  0
  -11.8767    3.3417    1.4238 S   0  0  0  0  0  0  0  0  0  0  0  0
  -10.9181    4.2511    0.1604 C   0  0  0  0  0  0  0  0  0  0  0  0
  -10.8371    5.7207    0.4780 C   0  0  0  0  0  0  0  0  0  0  0  0
   -9.7017    6.2437    0.6366 O   0  0  0  0  0  0  0  0  0  0  0  0
  -12.0076    6.5321    0.6695 N   0  0  0  0  0  0  0  0  0  0  0  0
  -13.3331    6.1338    0.2963 C   0  0  0  0  0  0  0  0  0  0  0  0
  -13.6173    5.7117   -1.0119 C   0  0  0  0  0  0  0  0  0  0  0  0
  -14.9188    5.3371   -1.3634 C   0  0  0  0  0  0  0  0  0  0  0  0
  -15.2663    4.8019   -2.9972 Cl  0  0  0  0  0  0  0  0  0  0  0  0
  -15.9445    5.3988   -0.4147 C   0  0  0  0  0  0  0  0  0  0  0  0
  -15.6720    5.8432    0.8833 C   0  0  0  0  0  0  0  0  0  0  0  0
  -16.9622    5.9287    2.0691 Cl  0  0  0  0  0  0  0  0  0  0  0  0
  -14.3709    6.2189    1.2350 C   0  0  0  0  0  0  0  0  0  0  0  0
  -10.7930    4.6774    3.5669 N   0  0  0  0  0  0  0  0  0  0  0  0
   -9.8868    4.9041    4.5631 C   0  0  0  0  0  0  0  0  0  0  0  0
   -9.9925    5.9329    5.2822 O   0  0  0  0  0  0  0  0  0  0  0  0
   -8.8393    3.9896    4.7473 C   0  0  0  0  0  0  0  0  0  0  0  0
  1  3  4  0
  1 14  4  0
  1  2  1  0
  3  4  4  0
  4  5  4  0
  5  6  4  0
  5 22  1  0
  6  7  1  0
  6 14  4  0
  7  8  1  0
  8  9  4  0
  8 12  4  0
  9 10  4  0
 10 11  4  0
 11 12  4  0
 12 13  1  0
 13 14  1  0
 13 15  1  6
 15 16  4  0
 15 20  4  0
 16 17  4  0
 17 18  4  0
 17 21  1  0
 18 19  4  0
 19 20  4  0
 23 24  4  0
 24 25  4  0
 25 26  4  0
 26 27  4  0
 27 28  1  0
 28 29  1  0
 29 30  1  0
 30 31  2  0
 30 32  1  0
 32 33  1  0
 33 34  4  0
 34 35  4  0
 35 36  1  0
 35 37  4  0
 37 38  4  0
 38 39  1  0
 38 40  4  0
 27 41  4  0
 41 42  4  0
 42 43  2  0
 42 44  4  0
 44 25  4  0
 40 33  4  0
  2 23  4  0
  2 44  4  0
M  END
$$$$

     RDKit          3D

 44 50  0  0  0  0  0  0  0  0999 V2000
   -7.6410    4.9930    6.8080 C   0  0  0  0  0  0  0  0  0  1  0  0
   -7.7310    4.0530    5.7140 C   0  0  0  0  0  0  0  0  0  2  0  0
   -6.4520    5.6300    6.8680 N   0  0  0  0  0  0  0  0  0  0  0  0
   -6.2260    6.5240    7.8670 N   0  0  0  0  0  0  0  0  0  0  0  0
   -7.1930    6.7500    8.7820 C   0  0  0  0  0  0  0  0  0  0  0  0
   -8.4240    6.1170    8.7580 C   0  0  0  0  0  0  0  0  0  0  0  0
   -9.3950    6.3570    9.7450 N   0  0  0  0  0  0  0  0  0  0  0  0
  -10.5620    5.6840    9.7600 C   0  0  0  0  0  0  0  0  0  0  0  0
  -11.5770    5.6820   10.5960 N   0  0  0  0  0  0  0  0  0  0  0  0
  -12.4690    4.7490   10.1080 N   0  0  0  0  0  0  0  0  0  0  0  0
  -12.0160    4.1880    8.9920 N   0  0  0  0  0  0  0  0  0  0  0  0
  -10.8400    4.7900    8.7610 N   0  0  0  0  0  0  0  0  0  0  0  0
   -9.9950    4.4790    7.6090 C   0  0  0  0  0  0  0  0  0  0  0  0
   -8.6630    5.2070    7.7200 C   0  0  0  0  0  0  0  0  0  0  0  0
  -10.7490    4.8610    6.3730 C   0  0  0  0  0  0  0  0  0  0  0  0
  -11.0350    6.2020    6.1170 C   0  0  0  0  0  0  0  0  0  0  0  0
  -11.7370    6.5580    4.9650 C   0  0  0  0  0  0  0  0  0  0  0  0
  -12.1550    5.5730    4.0710 C   0  0  0  0  0  0  0  0  0  0  0  0
  -11.8700    4.2310    4.3270 C   0  0  0  0  0  0  0  0  0  0  0  0
  -11.1660    3.8760    5.4790 C   0  0  0  0  0  0  0  0  0  0  0  0
  -12.0160    7.8660    4.7150 O   0  0  0  0  0  0  0  0  0  0  0  0
   -6.8990    7.6510    9.7710 O   0  0  0  0  0  0  0  0  0  0  0  0
   -6.8848    2.9518    5.4971 C   0  0  0  0  0  0  0  0  0  0  0  0
   -7.4074    1.9865    4.2115 S   0  0  0  0  0  0  0  0  0  0  0  0
   -8.7654    2.9101    3.8882 C   0  0  0  0  0  0  0  0  0  0  0  0
   -9.6754    2.6927    2.9114 N   0  0  0  0  0  0  0  0  0  0  0  0
  -10.7143    3.5620    2.7725 C   0  0  0  0  0  0  0  0  0  0  0  0
  -11.9327    3.2802    1.4864 S   0  0  0  0  0  0  0  0  0  0  0  0
  -12.9317    2.0968    2.4574 C   0  0  0  0  0  0  0  0  0  0  0  0
  -13.9933    2.8137    3.2448 C   0  0  0  0  0  0  0  0  0  0  0  0
  -13.6516    3.6748    4.0980 O   0  0  0  0  0  0  0  0  0  0  0  0
  -15.3910    2.5742    3.0200 N   0  0  0  0  0  0  0  0  0  0  0  0
  -15.9480    1.3027    2.6474 C   0  0  0  0  0  0  0  0  0  0  0  0
  -17.1207    1.2627    1.8782 C   0  0  0  0  0  0  0  0  0  0  0  0
  -17.6948    0.0362    1.5261 C   0  0  0  0  0  0  0  0  0  0  0  0
  -19.1518   -0.0021    0.5500 Cl  0  0  0  0  0  0  0  0  0  0  0  0
  -17.1086   -1.1591    1.9540 C   0  0  0  0  0  0  0  0  0  0  0  0
  -15.9532   -1.1292    2.7411 C   0  0  0  0  0  0  0  0  0  0  0  0
  -15.2301   -2.6285    3.2946 Cl  0  0  0  0  0  0  0  0  0  0  0  0
  -15.3783    0.0965    3.0946 C   0  0  0  0  0  0  0  0  0  0  0  0
  -10.8134    4.6557    3.5885 N   0  0  0  0  0  0  0  0  0  0  0  0
   -9.8979    4.8923    4.5742 C   0  0  0  0  0  0  0  0  0  0  0  0
   -9.9970    5.9280    5.2844 O   0  0  0  0  0  0  0  0  0  0  0  0
   -8.8471    3.9812    4.7562 C   0  0  0  0  0  0  0  0  0  0  0  0
  1  3  4  0
  1 14  4  0
  1  2  1  0
  3  4  4  0
  4  5  4  0
  5  6  4  0
  5 22  1  0
  6  7  1  0
  6 14  4  0
  7  8  1  0
  8  9  4  0
  8 12  4  0
  9 10  4  0
 10 11  4  0
 11 12  4  0
 12 13  1  0
 13 14  1  0
 13 15  1  6
 15 16  4  0
 15 20  4  0
 16 17  4  0
 17 18  4  0
 17 21  1  0
 18 19  4  0
 19 20  4  0
 23 24  4  0
 24 25  4  0
 25 26  4  0
 26 27  4  0
 27 28  1  0
 28 29  1  0
 29 30  1  0
 30 31  2  0
 30 32  1  0
 32 33  1  0
 33 34  4  0
 34 35  4  0
 35 36  1  0
 35 37  4  0
 37 38  4  0
 38 39  1  0
 38 40  4  0
 27 41  4  0
 41 42  4  0
 42 43  2  0
 42 44  4  0
 44 25  4  0
 40 33  4  0
  2 23  4  0
  2 44  4  0
M  END
$$$$

     RDKit          3D

 46 52  0  0  0  0  0  0  0  0999 V2000
   -7.6410    4.9930    6.8080 C   0  0  0  0  0  0  0  0  0  1  0  0
   -7.7310    4.0530    5.7140 C   0  0  0  0  0  0  0  0  0  2  0  0
   -6.4520    5.6300    6.8680 N   0  0  0  0  0  0  0  0  0  0  0  0
   -6.2260    6.5240    7.8670 N   0  0  0  0  0  0  0  0  0  0  0  0
   -7.1930    6.7500    8.7820 C   0  0  0  0  0  0  0  0  0  0  0  0
   -8.4240    6.1170    8.7580 C   0  0  0  0  0  0  0  0  0  0  0  0
   -9.3950    6.3570    9.7450 N   0  0  0  0  0  0  0  0  0  0  0  0
  -10.5620    5.6840    9.7600 C   0  0  0  0  0  0  0  0  0  0  0  0
  -11.5770    5.6820   10.5960 N   0  0  0  0  0  0  0  0  0  0  0  0
  -12.4690    4.7490   10.1080 N   0  0  0  0  0  0  0  0  0  0  0  0
  -12.0160    4.1880    8.9920 N   0  0  0  0  0  0  0  0  0  0  0  0
  -10.8400    4.7900    8.7610 N   0  0  0  0  0  0  0  0  0  0  0  0
   -9.9950    4.4790    7.6090 C   0  0  0  0  0  0  0  0  0  0  0  0
   -8.6630    5.2070    7.7200 C   0  0  0  0  0  0  0  0  0  0  0  0
  -10.7490    4.8610    6.3730 C   0  0  0  0  0  0  0  0  0  0  0  0
  -11.0350    6.2020    6.1170 C   0  0  0  0  0  0  0  0  0  0  0  0
  -11.7370    6.5580    4.9650 C   0  0  0  0  0  0  0  0  0  0  0  0
  -12.1550    5.5730    4.0710 C   0  0  0  0  0  0  0  0  0  0  0  0
  -11.8700    4.2310    4.3270 C   0  0  0  0  0  0  0  0  0  0  0  0
  -11.1660    3.8760    5.4790 C   0  0  0  0  0  0  0  0  0  0  0  0
  -12.0160    7.8660    4.7150 O   0  0  0  0  0  0  0  0  0  0  0  0
   -6.8990    7.6510    9.7710 O   0  0  0  0  0  0  0  0  0  0  0  0
   -6.8820    3.0457    5.4138 N   0  0  0  0  0  0  0  0  0  0  0  0
   -7.2776    2.4018    4.3259 N   0  0  0  0  0  0  0  0  0  0  0  0
   -6.5377    1.3105    3.7374 C   0  0  0  0  0  0  0  0  0  0  0  0
   -5.3576    0.8508    4.3517 C   0  0  0  0  0  0  0  0  0  0  0  0
   -4.6264   -0.2019    3.7931 C   0  0  0  0  0  0  0  0  0  0  0  0
   -5.0644   -0.8134    2.6186 C   0  0  0  0  0  0  0  0  0  0  0  0
   -6.2342   -0.3724    1.9967 C   0  0  0  0  0  0  0  0  0  0  0  0
   -6.9671    0.6830    2.5487 C   0  0  0  0  0  0  0  0  0  0  0  0
   -8.4295    2.9485    3.8807 C   0  0  0  0  0  0  0  0  0  0  0  0
   -8.7953    3.9761    4.7332 C   0  0  0  0  0  0  0  0  0  0  0  0
   -9.9294    4.9645    4.5585 C   0  0  0  0  0  0  0  0  0  0  0  0
   -9.3758    6.2955    4.3034 N   0  0  0  0  0  0  0  0  0  0  0  0
   -9.1627    6.7370    2.9662 C   0  0  0  0  0  0  0  0  0  0  0  0
   -8.2237    8.0425    2.6604 S   0  0  0  0  0  0  0  0  0  0  0  0
   -9.8055    6.0369    1.9021 N   0  0  0  0  0  0  0  0  0  0  0  0
  -10.7475    4.9873    2.1861 C   0  0  0  0  0  0  0  0  0  0  0  0
  -11.5510    4.4392    1.0350 C   0  0  0  0  0  0  0  0  0  0  0  0
  -10.8974    4.5288    3.4593 C   0  0  0  0  0  0  0  0  0  0  0  0
  -11.9154    3.5072    3.8178 C   0  0  0  0  0  0  0  0  0  0  0  0
  -11.6535    2.6658    4.7188 O   0  0  0  0  0  0  0  0  0  0  0  0
  -13.1702    3.5072    3.1889 O   0  0  0  0  0  0  0  0  0  0  0  0
  -14.1872    2.5095    3.3442 C   0  0  0  0  0  0  0  0  0  0  0  0
  -13.7040    1.1441    2.8511 C   0  0  0  0  0  0  0  0  0  0  0  0
  -14.7072    2.4475    4.7833 C   0  0  0  0  0  0  0  0  0  0  0  0
  1  3  4  0
  1 14  4  0
  1  2  1  0
  3  4  4  0
  4  5  4  0
  5  6  4  0
  5 22  1  0
  6  7  1  0
  6 14  4  0
  7  8  1  0
  8  9  4  0
  8 12  4  0
  9 10  4  0
 10 11  4  0
 11 12  4  0
 12 13  1  0
 13 14  1  0
 13 15  1  6
 15 16  4  0
 15 20  4  0
 16 17  4  0
 17 18  4  0
 17 21  1  0
 18 19  4  0
 19 20  4  0
 23 24  4  0
 24 25  1  0
 25 26  4  0
 26 27  4  0
 27 28  4  0
 28 29  4  0
 29 30  4  0
 24 31  4  0
 31 32  4  0
 32 33  1  0
 33 34  1  0
 34 35  1  0
 35 36  2  0
 35 37  1  0
 37 38  1  0
 38 39  1  0
 38 40  2  0
 40 41  1  0
 41 42  2  0
 41 43  1  0
 43 44  1  0
 44 45  1  0
 44 46  1  0
 40 33  1  0
 30 25  4  0
  2 23  4  0
  2 32  4  0
M  END
$$$$

     RDKit          3D

 37 42  0  0  0  0  0  0  0  0999 V2000
   -7.6410    4.9930    6.8080 C   0  0  0  0  0  0  0  0  0  1  0  0
   -7.7310    4.0530    5.7140 C   0  0  0  0  0  0  0  0  0  2  0  0
   -6.4520    5.6300    6.8680 N   0  0  0  0  0  0  0  0  0  0  0  0
   -6.2260    6.5240    7.8670 N   0  0  0  0  0  0  0  0  0  0  0  0
   -7.1930    6.7500    8.7820 C   0  0  0  0  0  0  0  0  0  0  0  0
   -8.4240    6.1170    8.7580 C   0  0  0  0  0  0  0  0  0  0  0  0
   -9.3950    6.3570    9.7450 N   0  0  0  0  0  0  0  0  0  0  0  0
  -10.5620    5.6840    9.7600 C   0  0  0  0  0  0  0  0  0  0  0  0
  -11.5770    5.6820   10.5960 N   0  0  0  0  0  0  0  0  0  0  0  0
  -12.4690    4.7490   10.1080 N   0  0  0  0  0  0  0  0  0  0  0  0
  -12.0160    4.1880    8.9920 N   0  0  0  0  0  0  0  0  0  0  0  0
  -10.8400    4.7900    8.7610 N   0  0  0  0  0  0  0  0  0  0  0  0
   -9.9950    4.4790    7.6090 C   0  0  0  0  0  0  0  0  0  0  0  0
   -8.6630    5.2070    7.7200 C   0  0  0  0  0  0  0  0  0  0  0  0
  -10.7490    4.8610    6.3730 C   0  0  0  0  0  0  0  0  0  0  0  0
  -11.0350    6.2020    6.1170 C   0  0  0  0  0  0  0  0  0  0  0  0
  -11.7370    6.5580    4.9650 C   0  0  0  0  0  0  0  0  0  0  0  0
  -12.1550    5.5730    4.0710 C   0  0  0  0  0  0  0  0  0  0  0  0
  -11.8700    4.2310    4.3270 C   0  0  0  0  0  0  0  0  0  0  0  0
  -11.1660    3.8760    5.4790 C   0  0  0  0  0  0  0  0  0  0  0  0
  -12.0160    7.8660    4.7150 O   0  0  0  0  0  0  0  0  0  0  0  0
   -6.8990    7.6510    9.7710 O   0  0  0  0  0  0  0  0  0  0  0  0
   -6.7893    3.1759    5.3102 N   0  0  0  0  0  0  0  0  0  0  0  0
   -7.2278    2.4848    4.2695 N   0  0  0  0  0  0  0  0  0  0  0  0
   -8.4777    2.9130    4.0161 C   0  0  0  0  0  0  0  0  0  0  0  0
   -9.4675    2.2983    2.6525 S   0  0  0  0  0  0  0  0  0  0  0  0
   -8.7837    3.4931    1.4591 C   0  0  0  0  0  0  0  0  0  0  0  0
   -9.5530    3.4134    0.1760 C   0  0  0  0  0  0  0  0  0  0  0  0
   -9.1442    2.8949   -1.0386 C   0  0  0  0  0  0  0  0  0  0  0  0
   -7.8128    2.2962   -1.3510 C   0  0  0  0  0  0  0  0  0  0  0  0
  -10.1555    2.9900   -1.9259 N   0  0  0  0  0  0  0  0  0  0  0  0
  -11.1582    3.5446   -1.3069 O   0  0  0  0  0  0  0  0  0  0  0  0
  -10.8532    3.8181   -0.0594 C   0  0  0  0  0  0  0  0  0  0  0  0
  -11.7917    4.4457    0.9193 C   0  0  0  0  0  0  0  0  0  0  0  0
   -8.8651    3.8696    4.8846 N   0  0  0  0  0  0  0  0  0  0  0  0
  -10.1242    4.6219    4.8722 C   0  0  0  0  0  0  0  0  0  0  0  0
  -11.2673    3.7676    5.4119 C   0  0  0  0  0  0  0  0  0  0  0  0
  1  3  4  0
  1 14  4  0
  1  2  1  0
  3  4  4  0
  4  5  4  0
  5  6  4  0
  5 22  1  0
  6  7  1  0
  6 14  4  0
  7  8  1  0
  8  9  4  0
  8 12  4  0
  9 10  4  0
 10 11  4  0
 11 12  4  0
 12 13  1  0
 13 14  1  0
 13 15  1  6
 15 16  4  0
 15 20  4  0
 16 17  4  0
 17 18  4  0
 17 21  1  0
 18 19  4  0
 19 20  4  0
 23 24  4  0
 24 25  4  0
 25 26  1  0
 26 27  1  0
 27 28  1  0
 28 29  4  0
 29 30  1  0
 29 31  4  0
 31 32  4  0
 32 33  4  0
 33 34  1  0
 25 35  4  0
 35 36  1  0
 36 37  1  0
 33 28  4  0
  2 23  4  0
  2 35  4  0
M  END
$$$$

     RDKit          3D

 37 42  0  0  0  0  0  0  0  0999 V2000
   -7.6410    4.9930    6.8080 C   0  0  0  0  0  0  0  0  0  1  0  0
   -7.7310    4.0530    5.7140 C   0  0  0  0  0  0  0  0  0  2  0  0
   -6.4520    5.6300    6.8680 N   0  0  0  0  0  0  0  0  0  0  0  0
   -6.2260    6.5240    7.8670 N   0  0  0  0  0  0  0  0  0  0  0  0
   -7.1930    6.7500    8.7820 C   0  0  0  0  0  0  0  0  0  0  0  0
   -8.4240    6.1170    8.7580 C   0  0  0  0  0  0  0  0  0  0  0  0
   -9.3950    6.3570    9.7450 N   0  0  0  0  0  0  0  0  0  0  0  0
  -10.5620    5.6840    9.7600 C   0  0  0  0  0  0  0  0  0  0  0  0
  -11.5770    5.6820   10.5960 N   0  0  0  0  0  0  0  0  0  0  0  0
  -12.4690    4.7490   10.1080 N   0  0  0  0  0  0  0  0  0  0  0  0
  -12.0160    4.1880    8.9920 N   0  0  0  0  0  0  0  0  0  0  0  0
  -10.8400    4.7900    8.7610 N   0  0  0  0  0  0  0  0  0  0  0  0
   -9.9950    4.4790    7.6090 C   0  0  0  0  0  0  0  0  0  0  0  0
   -8.6630    5.2070    7.7200 C   0  0  0  0  0  0  0  0  0  0  0  0
  -10.7490    4.8610    6.3730 C   0  0  0  0  0  0  0  0  0  0  0  0
  -11.0350    6.2020    6.1170 C   0  0  0  0  0  0  0  0  0  0  0  0
  -11.7370    6.5580    4.9650 C   0  0  0  0  0  0  0  0  0  0  0  0
  -12.1550    5.5730    4.0710 C   0  0  0  0  0  0  0  0  0  0  0  0
  -11.8700    4.2310    4.3270 C   0  0  0  0  0  0  0  0  0  0  0  0
  -11.1660    3.8760    5.4790 C   0  0  0  0  0  0  0  0  0  0  0  0
  -12.0160    7.8660    4.7150 O   0  0  0  0  0  0  0  0  0  0  0  0
   -6.8990    7.6510    9.7710 O   0  0  0  0  0  0  0  0  0  0  0  0
   -6.7925    3.1730    5.3105 N   0  0  0  0  0  0  0  0  0  0  0  0
   -7.2361    2.4763    4.2757 N   0  0  0  0  0  0  0  0  0  0  0  0
   -8.4872    2.9023    4.0270 C   0  0  0  0  0  0  0  0  0  0  0  0
   -9.4823    2.2821    2.6692 S   0  0  0  0  0  0  0  0  0  0  0  0
   -8.8165    3.4844    1.4726 C   0  0  0  0  0  0  0  0  0  0  0  0
   -9.5665    3.3771    0.1795 C   0  0  0  0  0  0  0  0  0  0  0  0
  -10.8844    3.7133   -0.0722 C   0  0  0  0  0  0  0  0  0  0  0  0
  -11.8753    4.2443    0.9129 C   0  0  0  0  0  0  0  0  0  0  0  0
  -11.1744    3.4503   -1.3618 N   0  0  0  0  0  0  0  0  0  0  0  0
  -10.0894    2.9806   -1.9087 O   0  0  0  0  0  0  0  0  0  0  0  0
   -9.1064    2.9177   -1.0392 C   0  0  0  0  0  0  0  0  0  0  0  0
   -7.7344    2.4204   -1.3543 C   0  0  0  0  0  0  0  0  0  0  0  0
   -8.8706    3.8625    4.8936 N   0  0  0  0  0  0  0  0  0  0  0  0
  -10.1202    4.6302    4.8709 C   0  0  0  0  0  0  0  0  0  0  0  0
  -11.2809    3.7932    5.4005 C   0  0  0  0  0  0  0  0  0  0  0  0
  1  3  4  0
  1 14  4  0
  1  2  1  0
  3  4  4  0
  4  5  4  0
  5  6  4  0
  5 22  1  0
  6  7  1  0
  6 14  4  0
  7  8  1  0
  8  9  4  0
  8 12  4  0
  9 10  4  0
 10 11  4  0
 11 12  4  0
 12 13  1  0
 13 14  1  0
 13 15  1  6
 15 16  4  0
 15 20  4  0
 16 17  4  0
 17 18  4  0
 17 21  1  0
 18 19  4  0
 19 20  4  0
 23 24  4  0
 24 25  4  0
 25 26  1  0
 26 27  1  0
 27 28  1  0
 28 29  4  0
 29 30  1  0
 29 31  4  0
 31 32  4  0
 32 33  4  0
 33 34  1  0
 25 35  4  0
 35 36  1  0
 36 37  1  0
 33 28  4  0
  2 23  4  0
  2 35  4  0
M  END
$$$$

     RDKit          3D

 37 42  0  0  0  0  0  0  0  0999 V2000
   -7.6410    4.9930    6.8080 C   0  0  0  0  0  0  0  0  0  1  0  0
   -7.7310    4.0530    5.7140 C   0  0  0  0  0  0  0  0  0  2  0  0
   -6.4520    5.6300    6.8680 N   0  0  0  0  0  0  0  0  0  0  0  0
   -6.2260    6.5240    7.8670 N   0  0  0  0  0  0  0  0  0  0  0  0
   -7.1930    6.7500    8.7820 C   0  0  0  0  0  0  0  0  0  0  0  0
   -8.4240    6.1170    8.7580 C   0  0  0  0  0  0  0  0  0  0  0  0
   -9.3950    6.3570    9.7450 N   0  0  0  0  0  0  0  0  0  0  0  0
  -10.5620    5.6840    9.7600 C   0  0  0  0  0  0  0  0  0  0  0  0
  -11.5770    5.6820   10.5960 N   0  0  0  0  0  0  0  0  0  0  0  0
  -12.4690    4.7490   10.1080 N   0  0  0  0  0  0  0  0  0  0  0  0
  -12.0160    4.1880    8.9920 N   0  0  0  0  0  0  0  0  0  0  0  0
  -10.8400    4.7900    8.7610 N   0  0  0  0  0  0  0  0  0  0  0  0
   -9.9950    4.4790    7.6090 C   0  0  0  0  0  0  0  0  0  0  0  0
   -8.6630    5.2070    7.7200 C   0  0  0  0  0  0  0  0  0  0  0  0
  -10.7490    4.8610    6.3730 C   0  0  0  0  0  0  0  0  0  0  0  0
  -11.0350    6.2020    6.1170 C   0  0  0  0  0  0  0  0  0  0  0  0
  -11.7370    6.5580    4.9650 C   0  0  0  0  0  0  0  0  0  0  0  0
  -12.1550    5.5730    4.0710 C   0  0  0  0  0  0  0  0  0  0  0  0
  -11.8700    4.2310    4.3270 C   0  0  0  0  0  0  0  0  0  0  0  0
  -11.1660    3.8760    5.4790 C   0  0  0  0  0  0  0  0  0  0  0  0
  -12.0160    7.8660    4.7150 O   0  0  0  0  0  0  0  0  0  0  0  0
   -6.8990    7.6510    9.7710 O   0  0  0  0  0  0  0  0  0  0  0  0
   -6.8694    3.0543    5.4207 N   0  0  0  0  0  0  0  0  0  0  0  0
   -7.3058    2.3822    4.3663 N   0  0  0  0  0  0  0  0  0  0  0  0
   -8.4719    2.9441    3.9993 C   0  0  0  0  0  0  0  0  0  0  0  0
   -9.4310    2.3811    2.5905 S   0  0  0  0  0  0  0  0  0  0  0  0
   -8.4810    3.3734    1.3945 C   0  0  0  0  0  0  0  0  0  0  0  0
   -9.1489    3.3316    0.0537 C   0  0  0  0  0  0  0  0  0  0  0  0
   -9.2764    2.2550   -0.8045 C   0  0  0  0  0  0  0  0  0  0  0  0
   -8.8142    0.8551   -0.5586 C   0  0  0  0  0  0  0  0  0  0  0  0
   -9.9529    2.6391   -1.9051 N   0  0  0  0  0  0  0  0  0  0  0  0
  -10.2298    3.9036   -1.7614 O   0  0  0  0  0  0  0  0  0  0  0  0
   -9.7747    4.3638   -0.6183 C   0  0  0  0  0  0  0  0  0  0  0  0
   -9.9341    5.7744   -0.1539 C   0  0  0  0  0  0  0  0  0  0  0  0
   -8.8091    3.9704    4.8084 N   0  0  0  0  0  0  0  0  0  0  0  0
   -9.9399    4.8960    4.6631 C   0  0  0  0  0  0  0  0  0  0  0  0
   -9.4664    6.2697    4.1968 C   0  0  0  0  0  0  0  0  0  0  0  0
  1  3  4  0
  1 14  4  0
  1  2  1  0
  3  4  4  0
  4  5  4  0
  5  6  4  0
  5 22  1  0
  6  7  1  0
  6 14  4  0
  7  8  1  0
  8  9  4  0
  8 12  4  0
  9 10  4  0
 10 11  4  0
 11 12  4  0
 12 13  1  0
 13 14  1  0
 13 15  1  6
 15 16  4  0
 15 20  4  0
 16 17  4  0
 17 18  4  0
 17 21  1  0
 18 19  4  0
 19 20  4  0
 23 24  4  0
 24 25  4  0
 25 26  1  0
 26 27  1  0
 27 28  1  0
 28 29  4  0
 29 30  1  0
 29 31  4  0
 31 32  4  0
 32 33  4  0
 33 34  1  0
 25 35  4  0
 35 36  1  0
 36 37  1  0
 33 28  4  0
  2 23  4  0
  2 35  4  0
M  END
$$$$

     RDKit          3D

 37 42  0  0  0  0  0  0  0  0999 V2000
   -7.6410    4.9930    6.8080 C   0  0  0  0  0  0  0  0  0  1  0  0
   -7.7310    4.0530    5.7140 C   0  0  0  0  0  0  0  0  0  2  0  0
   -6.4520    5.6300    6.8680 N   0  0  0  0  0  0  0  0  0  0  0  0
   -6.2260    6.5240    7.8670 N   0  0  0  0  0  0  0  0  0  0  0  0
   -7.1930    6.7500    8.7820 C   0  0  0  0  0  0  0  0  0  0  0  0
   -8.4240    6.1170    8.7580 C   0  0  0  0  0  0  0  0  0  0  0  0
   -9.3950    6.3570    9.7450 N   0  0  0  0  0  0  0  0  0  0  0  0
  -10.5620    5.6840    9.7600 C   0  0  0  0  0  0  0  0  0  0  0  0
  -11.5770    5.6820   10.5960 N   0  0  0  0  0  0  0  0  0  0  0  0
  -12.4690    4.7490   10.1080 N   0  0  0  0  0  0  0  0  0  0  0  0
  -12.0160    4.1880    8.9920 N   0  0  0  0  0  0  0  0  0  0  0  0
  -10.8400    4.7900    8.7610 N   0  0  0  0  0  0  0  0  0  0  0  0
   -9.9950    4.4790    7.6090 C   0  0  0  0  0  0  0  0  0  0  0  0
   -8.6630    5.2070    7.7200 C   0  0  0  0  0  0  0  0  0  0  0  0
  -10.7490    4.8610    6.3730 C   0  0  0  0  0  0  0  0  0  0  0  0
  -11.0350    6.2020    6.1170 C   0  0  0  0  0  0  0  0  0  0  0  0
  -11.7370    6.5580    4.9650 C   0  0  0  0  0  0  0  0  0  0  0  0
  -12.1550    5.5730    4.0710 C   0  0  0  0  0  0  0  0  0  0  0  0
  -11.8700    4.2310    4.3270 C   0  0  0  0  0  0  0  0  0  0  0  0
  -11.1660    3.8760    5.4790 C   0  0  0  0  0  0  0  0  0  0  0  0
  -12.0160    7.8660    4.7150 O   0  0  0  0  0  0  0  0  0  0  0  0
   -6.8990    7.6510    9.7710 O   0  0  0  0  0  0  0  0  0  0  0  0
   -6.8588    3.0600    5.4320 N   0  0  0  0  0  0  0  0  0  0  0  0
   -7.2837    2.3748    4.3834 N   0  0  0  0  0  0  0  0  0  0  0  0
   -8.4529    2.9218    4.0061 C   0  0  0  0  0  0  0  0  0  0  0  0
   -9.3809    2.3325    2.5886 S   0  0  0  0  0  0  0  0  0  0  0  0
   -8.3196    3.1729    1.3609 C   0  0  0  0  0  0  0  0  0  0  0  0
   -8.4468    2.4968    0.0279 C   0  0  0  0  0  0  0  0  0  0  0  0
   -9.5717    2.3856   -0.7710 C   0  0  0  0  0  0  0  0  0  0  0  0
  -10.9392    2.9112   -0.4734 C   0  0  0  0  0  0  0  0  0  0  0  0
   -9.2680    1.6702   -1.8722 N   0  0  0  0  0  0  0  0  0  0  0  0
   -8.0066    1.3531   -1.7865 O   0  0  0  0  0  0  0  0  0  0  0  0
   -7.4726    1.8180   -0.6795 C   0  0  0  0  0  0  0  0  0  0  0  0
   -6.0563    1.5870   -0.2651 C   0  0  0  0  0  0  0  0  0  0  0  0
   -8.8043    3.9540    4.8037 N   0  0  0  0  0  0  0  0  0  0  0  0
  -10.0027    4.7999    4.7103 C   0  0  0  0  0  0  0  0  0  0  0  0
   -9.9355    5.7303    3.5025 C   0  0  0  0  0  0  0  0  0  0  0  0
  1  3  4  0
  1 14  4  0
  1  2  1  0
  3  4  4  0
  4  5  4  0
  5  6  4  0
  5 22  1  0
  6  7  1  0
  6 14  4  0
  7  8  1  0
  8  9  4  0
  8 12  4  0
  9 10  4  0
 10 11  4  0
 11 12  4  0
 12 13  1  0
 13 14  1  0
 13 15  1  6
 15 16  4  0
 15 20  4  0
 16 17  4  0
 17 18  4  0
 17 21  1  0
 18 19  4  0
 19 20  4  0
 23 24  4  0
 24 25  4  0
 25 26  1  0
 26 27  1  0
 27 28  1  0
 28 29  4  0
 29 30  1  0
 29 31  4  0
 31 32  4  0
 32 33  4  0
 33 34  1  0
 25 35  4  0
 35 36  1  0
 36 37  1  0
 33 28  4  0
  2 23  4  0
  2 35  4  0
M  END
$$$$

     RDKit          3D

 29 33  0  0  0  0  0  0  0  0999 V2000
   -7.6410    4.9930    6.8080 C   0  0  0  0  0  0  0  0  0  1  0  0
   -7.7310    4.0530    5.7140 C   0  0  0  0  0  0  0  0  0  2  0  0
   -6.4520    5.6300    6.8680 N   0  0  0  0  0  0  0  0  0  0  0  0
   -6.2260    6.5240    7.8670 N   0  0  0  0  0  0  0  0  0  0  0  0
   -7.1930    6.7500    8.7820 C   0  0  0  0  0  0  0  0  0  0  0  0
   -8.4240    6.1170    8.7580 C   0  0  0  0  0  0  0  0  0  0  0  0
   -9.3950    6.3570    9.7450 N   0  0  0  0  0  0  0  0  0  0  0  0
  -10.5620    5.6840    9.7600 C   0  0  0  0  0  0  0  0  0  0  0  0
  -11.5770    5.6820   10.5960 N   0  0  0  0  0  0  0  0  0  0  0  0
  -12.4690    4.7490   10.1080 N   0  0  0  0  0  0  0  0  0  0  0  0
  -12.0160    4.1880    8.9920 N   0  0  0  0  0  0  0  0  0  0  0  0
  -10.8400    4.7900    8.7610 N   0  0  0  0  0  0  0  0  0  0  0  0
   -9.9950    4.4790    7.6090 C   0  0  0  0  0  0  0  0  0  0  0  0
   -8.6630    5.2070    7.7200 C   0  0  0  0  0  0  0  0  0  0  0  0
  -10.7490    4.8610    6.3730 C   0  0  0  0  0  0  0  0  0  0  0  0
  -11.0350    6.2020    6.1170 C   0  0  0  0  0  0  0  0  0  0  0  0
  -11.7370    6.5580    4.9650 C   0  0  0  0  0  0  0  0  0  0  0  0
  -12.1550    5.5730    4.0710 C   0  0  0  0  0  0  0  0  0  0  0  0
  -11.8700    4.2310    4.3270 C   0  0  0  0  0  0  0  0  0  0  0  0
  -11.1660    3.8760    5.4790 C   0  0  0  0  0  0  0  0  0  0  0  0
  -12.0160    7.8660    4.7150 O   0  0  0  0  0  0  0  0  0  0  0  0
   -6.8990    7.6510    9.7710 O   0  0  0  0  0  0  0  0  0  0  0  0
   -6.8093    3.0397    5.4379 C   0  0  0  0  0  0  0  0  0  0  0  0
   -6.9874    2.0959    4.4226 C   0  0  0  0  0  0  0  0  0  0  0  0
   -8.1487    2.1128    3.6390 C   0  0  0  0  0  0  0  0  0  0  0  0
   -8.3306    1.1467    2.6005 N   0  0  0  0  0  0  0  0  0  0  0  0
   -9.1263    3.0893    3.8733 C   0  0  0  0  0  0  0  0  0  0  0  0
   -8.9514    4.0354    4.8884 C   0  0  0  0  0  0  0  0  0  0  0  0
   -9.8896    5.0013    5.0571 F   0  0  0  0  0  0  0  0  0  0  0  0
  1  3  4  0
  1 14  4  0
  1  2  1  0
  3  4  4  0
  4  5  4  0
  5  6  4  0
  5 22  1  0
  6  7  1  0
  6 14  4  0
  7  8  1  0
  8  9  4  0
  8 12  4  0
  9 10  4  0
 10 11  4  0
 11 12  4  0
 12 13  1  0
 13 14  1  0
 13 15  1  6
 15 16  4  0
 15 20  4  0
 16 17  4  0
 17 18  4  0
 17 21  1  0
 18 19  4  0
 19 20  4  0
 23 24  4  0
 24 25  4  0
 25 26  1  0
 25 27  4  0
 27 28  4  0
 28 29  1  0
  2 23  4  0
  2 28  4  0
M  END
$$$$

     RDKit          3D

 30 34  0  0  0  0  0  0  0  0999 V2000
   -7.6410    4.9930    6.8080 C   0  0  0  0  0  0  0  0  0  1  0  0
   -7.7310    4.0530    5.7140 C   0  0  0  0  0  0  0  0  0  2  0  0
   -6.4520    5.6300    6.8680 N   0  0  0  0  0  0  0  0  0  0  0  0
   -6.2260    6.5240    7.8670 N   0  0  0  0  0  0  0  0  0  0  0  0
   -7.1930    6.7500    8.7820 C   0  0  0  0  0  0  0  0  0  0  0  0
   -8.4240    6.1170    8.7580 C   0  0  0  0  0  0  0  0  0  0  0  0
   -9.3950    6.3570    9.7450 N   0  0  0  0  0  0  0  0  0  0  0  0
  -10.5620    5.6840    9.7600 C   0  0  0  0  0  0  0  0  0  0  0  0
  -11.5770    5.6820   10.5960 N   0  0  0  0  0  0  0  0  0  0  0  0
  -12.4690    4.7490   10.1080 N   0  0  0  0  0  0  0  0  0  0  0  0
  -12.0160    4.1880    8.9920 N   0  0  0  0  0  0  0  0  0  0  0  0
  -10.8400    4.7900    8.7610 N   0  0  0  0  0  0  0  0  0  0  0  0
   -9.9950    4.4790    7.6090 C   0  0  0  0  0  0  0  0  0  0  0  0
   -8.6630    5.2070    7.7200 C   0  0  0  0  0  0  0  0  0  0  0  0
  -10.7490    4.8610    6.3730 C   0  0  0  0  0  0  0  0  0  0  0  0
  -11.0350    6.2020    6.1170 C   0  0  0  0  0  0  0  0  0  0  0  0
  -11.7370    6.5580    4.9650 C   0  0  0  0  0  0  0  0  0  0  0  0
  -12.1550    5.5730    4.0710 C   0  0  0  0  0  0  0  0  0  0  0  0
  -11.8700    4.2310    4.3270 C   0  0  0  0  0  0  0  0  0  0  0  0
  -11.1660    3.8760    5.4790 C   0  0  0  0  0  0  0  0  0  0  0  0
  -12.0160    7.8660    4.7150 O   0  0  0  0  0  0  0  0  0  0  0  0
   -6.8990    7.6510    9.7710 O   0  0  0  0  0  0  0  0  0  0  0  0
   -6.7990    3.0220    5.5143 C   0  0  0  0  0  0  0  0  0  0  0  0
   -6.9232    2.0827    4.4877 C   0  0  0  0  0  0  0  0  0  0  0  0
   -8.0234    2.1297    3.6125 C   0  0  0  0  0  0  0  0  0  0  0  0
   -8.1950    1.2075    2.5694 O   0  0  0  0  0  0  0  0  0  0  0  0
   -7.2976    0.1392    2.2851 C   0  0  0  0  0  0  0  0  0  0  0  0
   -8.9847    3.1326    3.7777 C   0  0  0  0  0  0  0  0  0  0  0  0
   -8.8627    4.0823    4.8022 C   0  0  0  0  0  0  0  0  0  0  0  0
   -9.8083    5.1012    4.9198 O   0  0  0  0  0  0  0  0  0  0  0  0
  1  3  4  0
  1 14  4  0
  1  2  1  0
  3  4  4  0
  4  5  4  0
  5  6  4  0
  5 22  1  0
  6  7  1  0
  6 14  4  0
  7  8  1  0
  8  9  4  0
  8 12  4  0
  9 10  4  0
 10 11  4  0
 11 12  4  0
 12 13  1  0
 13 14  1  0
 13 15  1  6
 15 16  4  0
 15 20  4  0
 16 17  4  0
 17 18  4  0
 17 21  1  0
 18 19  4  0
 19 20  4  0
 23 24  4  0
 24 25  4  0
 25 26  1  0
 26 27  1  0
 25 28  4  0
 28 29  4  0
 29 30  1  0
  2 23  4  0
  2 29  4  0
M  END
$$$$

     RDKit          3D

 44 49  0  0  0  0  0  0  0  0999 V2000
   -7.6410    4.9930    6.8080 C   0  0  0  0  0  0  0  0  0  1  0  0
   -7.7310    4.0530    5.7140 C   0  0  0  0  0  0  0  0  0  2  0  0
   -6.4520    5.6300    6.8680 N   0  0  0  0  0  0  0  0  0  0  0  0
   -6.2260    6.5240    7.8670 N   0  0  0  0  0  0  0  0  0  0  0  0
   -7.1930    6.7500    8.7820 C   0  0  0  0  0  0  0  0  0  0  0  0
   -8.4240    6.1170    8.7580 C   0  0  0  0  0  0  0  0  0  0  0  0
   -9.3950    6.3570    9.7450 N   0  0  0  0  0  0  0  0  0  0  0  0
  -10.5620    5.6840    9.7600 C   0  0  0  0  0  0  0  0  0  0  0  0
  -11.5770    5.6820   10.5960 N   0  0  0  0  0  0  0  0  0  0  0  0
  -12.4690    4.7490   10.1080 N   0  0  0  0  0  0  0  0  0  0  0  0
  -12.0160    4.1880    8.9920 N   0  0  0  0  0  0  0  0  0  0  0  0
  -10.8400    4.7900    8.7610 N   0  0  0  0  0  0  0  0  0  0  0  0
   -9.9950    4.4790    7.6090 C   0  0  0  0  0  0  0  0  0  0  0  0
   -8.6630    5.2070    7.7200 C   0  0  0  0  0  0  0  0  0  0  0  0
  -10.7490    4.8610    6.3730 C   0  0  0  0  0  0  0  0  0  0  0  0
  -11.0350    6.2020    6.1170 C   0  0  0  0  0  0  0  0  0  0  0  0
  -11.7370    6.5580    4.9650 C   0  0  0  0  0  0  0  0  0  0  0  0
  -12.1550    5.5730    4.0710 C   0  0  0  0  0  0  0  0  0  0  0  0
  -11.8700    4.2310    4.3270 C   0  0  0  0  0  0  0  0  0  0  0  0
  -11.1660    3.8760    5.4790 C   0  0  0  0  0  0  0  0  0  0  0  0
  -12.0160    7.8660    4.7150 O   0  0  0  0  0  0  0  0  0  0  0  0
   -6.8990    7.6510    9.7710 O   0  0  0  0  0  0  0  0  0  0  0  0
   -6.9295    2.9819    5.4943 N   0  0  0  0  0  0  0  0  0  0  0  0
   -7.3581    2.3213    4.4279 N   0  0  0  0  0  0  0  0  0  0  0  0
   -8.4521    2.9669    3.9814 C   0  0  0  0  0  0  0  0  0  0  0  0
   -9.3890    2.4480    2.5375 S   0  0  0  0  0  0  0  0  0  0  0  0
   -8.1781    3.0824    1.3190 C   0  0  0  0  0  0  0  0  0  0  0  0
   -8.2702    4.6040    1.1852 C   0  0  0  0  0  0  0  0  0  0  0  0
   -8.4319    2.4177   -0.0064 C   0  0  0  0  0  0  0  0  0  0  0  0
   -9.5008    2.6616   -0.6314 O   0  0  0  0  0  0  0  0  0  0  0  0
   -7.4837    1.4768   -0.5326 N   0  0  0  0  0  0  0  0  0  0  0  0
   -7.5918    0.9010   -1.8447 C   0  0  0  0  0  0  0  0  0  0  0  0
   -8.2196    1.5163   -2.7493 O   0  0  0  0  0  0  0  0  0  0  0  0
   -6.9739   -0.3576   -2.1595 N   0  0  0  0  0  0  0  0  0  0  0  0
   -6.5116   -1.3133   -1.1425 C   0  0  0  0  0  0  0  0  0  0  0  0
   -7.6963   -1.8452   -0.3255 C   0  0  0  0  0  0  0  0  0  0  0  0
   -5.7560   -2.4612   -1.7871 C   0  0  0  0  0  0  0  0  0  0  0  0
   -6.3749   -3.2897   -2.7440 C   0  0  0  0  0  0  0  0  0  0  0  0
   -5.6691   -4.3481   -3.3247 C   0  0  0  0  0  0  0  0  0  0  0  0
   -4.3433   -4.5918   -2.9570 C   0  0  0  0  0  0  0  0  0  0  0  0
   -3.7202   -3.7773   -2.0088 C   0  0  0  0  0  0  0  0  0  0  0  0
   -4.4203   -2.7164   -1.4270 C   0  0  0  0  0  0  0  0  0  0  0  0
   -8.7415    4.0390    4.7442 N   0  0  0  0  0  0  0  0  0  0  0  0
   -9.8613    4.9674    4.6022 C   0  0  0  0  0  0  0  0  0  0  0  0
  1  3  4  0
  1 14  4  0
  1  2  1  0
  3  4  4  0
  4  5  4  0
  5  6  4  0
  5 22  1  0
  6  7  1  0
  6 14  4  0
  7  8  1  0
  8  9  4  0
  8 12  4  0
  9 10  4  0
 10 11  4  0
 11 12  4  0
 12 13  1  0
 13 14  1  0
 13 15  1  6
 15 16  4  0
 15 20  4  0
 16 17  4  0
 17 18  4  0
 17 21  1  0
 18 19  4  0
 19 20  4  0
 23 24  4  0
 24 25  4  0
 25 26  1  0
 26 27  1  0
 27 28  1  0
 27 29  1  0
 29 30  2  0
 29 31  1  0
 31 32  1  0
 32 33  2  0
 32 34  1  0
 34 35  1  0
 35 36  1  0
 35 37  1  0
 37 38  4  0
 38 39  4  0
 39 40  4  0
 40 41  4  0
 41 42  4  0
 25 43  4  0
 43 44  1  0
 42 37  4  0
  2 23  4  0
  2 43  4  0
M  END
$$$$

     RDKit          3D

 44 49  0  0  0  0  0  0  0  0999 V2000
   -7.6410    4.9930    6.8080 C   0  0  0  0  0  0  0  0  0  1  0  0
   -7.7310    4.0530    5.7140 C   0  0  0  0  0  0  0  0  0  2  0  0
   -6.4520    5.6300    6.8680 N   0  0  0  0  0  0  0  0  0  0  0  0
   -6.2260    6.5240    7.8670 N   0  0  0  0  0  0  0  0  0  0  0  0
   -7.1930    6.7500    8.7820 C   0  0  0  0  0  0  0  0  0  0  0  0
   -8.4240    6.1170    8.7580 C   0  0  0  0  0  0  0  0  0  0  0  0
   -9.3950    6.3570    9.7450 N   0  0  0  0  0  0  0  0  0  0  0  0
  -10.5620    5.6840    9.7600 C   0  0  0  0  0  0  0  0  0  0  0  0
  -11.5770    5.6820   10.5960 N   0  0  0  0  0  0  0  0  0  0  0  0
  -12.4690    4.7490   10.1080 N   0  0  0  0  0  0  0  0  0  0  0  0
  -12.0160    4.1880    8.9920 N   0  0  0  0  0  0  0  0  0  0  0  0
  -10.8400    4.7900    8.7610 N   0  0  0  0  0  0  0  0  0  0  0  0
   -9.9950    4.4790    7.6090 C   0  0  0  0  0  0  0  0  0  0  0  0
   -8.6630    5.2070    7.7200 C   0  0  0  0  0  0  0  0  0  0  0  0
  -10.7490    4.8610    6.3730 C   0  0  0  0  0  0  0  0  0  0  0  0
  -11.0350    6.2020    6.1170 C   0  0  0  0  0  0  0  0  0  0  0  0
  -11.7370    6.5580    4.9650 C   0  0  0  0  0  0  0  0  0  0  0  0
  -12.1550    5.5730    4.0710 C   0  0  0  0  0  0  0  0  0  0  0  0
  -11.8700    4.2310    4.3270 C   0  0  0  0  0  0  0  0  0  0  0  0
  -11.1660    3.8760    5.4790 C   0  0  0  0  0  0  0  0  0  0  0  0
  -12.0160    7.8660    4.7150 O   0  0  0  0  0  0  0  0  0  0  0  0
   -6.8990    7.6510    9.7710 O   0  0  0  0  0  0  0  0  0  0  0  0
   -6.9494    2.9643    5.5074 N   0  0  0  0  0  0  0  0  0  0  0  0
   -7.4068    2.2822    4.4675 N   0  0  0  0  0  0  0  0  0  0  0  0
   -8.5117    2.9180    4.0339 C   0  0  0  0  0  0  0  0  0  0  0  0
   -9.4637    2.3780    2.6032 S   0  0  0  0  0  0  0  0  0  0  0  0
  -10.6642    1.2809    3.4751 C   0  0  0  0  0  0  0  0  0  0  0  0
  -11.4595    2.0505    4.5309 C   0  0  0  0  0  0  0  0  0  0  0  0
  -10.0247    0.0380    4.0630 C   0  0  0  0  0  0  0  0  0  0  0  0
   -8.7821   -0.1439    3.9589 O   0  0  0  0  0  0  0  0  0  0  0  0
  -10.8045   -0.9291    4.7858 N   0  0  0  0  0  0  0  0  0  0  0  0
  -12.1571   -1.2593    4.4500 C   0  0  0  0  0  0  0  0  0  0  0  0
  -12.9662   -1.5561    5.3706 O   0  0  0  0  0  0  0  0  0  0  0  0
  -12.5688   -1.3103    3.0768 N   0  0  0  0  0  0  0  0  0  0  0  0
  -13.9589   -1.1065    2.6534 C   0  0  0  0  0  0  0  0  0  0  0  0
  -14.8235   -2.3226    3.0074 C   0  0  0  0  0  0  0  0  0  0  0  0
  -14.0124   -0.8337    1.1619 C   0  0  0  0  0  0  0  0  0  0  0  0
  -13.5954   -1.8128    0.2388 C   0  0  0  0  0  0  0  0  0  0  0  0
  -13.6282   -1.5521   -1.1329 C   0  0  0  0  0  0  0  0  0  0  0  0
  -14.0651   -0.3080   -1.5987 C   0  0  0  0  0  0  0  0  0  0  0  0
  -14.4707    0.6748   -0.6922 C   0  0  0  0  0  0  0  0  0  0  0  0
  -14.4465    0.4164    0.6819 C   0  0  0  0  0  0  0  0  0  0  0  0
   -8.7596    4.0267    4.7616 N   0  0  0  0  0  0  0  0  0  0  0  0
   -9.7855    5.0486    4.5461 C   0  0  0  0  0  0  0  0  0  0  0  0
  1  3  4  0
  1 14  4  0
  1  2  1  0
  3  4  4  0
  4  5  4  0
  5  6  4  0
  5 22  1  0
  6  7  1  0
  6 14  4  0
  7  8  1  0
  8  9  4  0
  8 12  4  0
  9 10  4  0
 10 11  4  0
 11 12  4  0
 12 13  1  0
 13 14  1  0
 13 15  1  6
 15 16  4  0
 15 20  4  0
 16 17  4  0
 17 18  4  0
 17 21  1  0
 18 19  4  0
 19 20  4  0
 23 24  4  0
 24 25  4  0
 25 26  1  0
 26 27  1  0
 27 28  1  0
 27 29  1  0
 29 30  2  0
 29 31  1  0
 31 32  1  0
 32 33  2  0
 32 34  1  0
 34 35  1  0
 35 36  1  0
 35 37  1  0
 37 38  4  0
 38 39  4  0
 39 40  4  0
 40 41  4  0
 41 42  4  0
 25 43  4  0
 43 44  1  0
 42 37  4  0
  2 23  4  0
  2 43  4  0
M  END
$$$$

     RDKit          3D

 44 49  0  0  0  0  0  0  0  0999 V2000
   -7.6410    4.9930    6.8080 C   0  0  0  0  0  0  0  0  0  1  0  0
   -7.7310    4.0530    5.7140 C   0  0  0  0  0  0  0  0  0  2  0  0
   -6.4520    5.6300    6.8680 N   0  0  0  0  0  0  0  0  0  0  0  0
   -6.2260    6.5240    7.8670 N   0  0  0  0  0  0  0  0  0  0  0  0
   -7.1930    6.7500    8.7820 C   0  0  0  0  0  0  0  0  0  0  0  0
   -8.4240    6.1170    8.7580 C   0  0  0  0  0  0  0  0  0  0  0  0
   -9.3950    6.3570    9.7450 N   0  0  0  0  0  0  0  0  0  0  0  0
  -10.5620    5.6840    9.7600 C   0  0  0  0  0  0  0  0  0  0  0  0
  -11.5770    5.6820   10.5960 N   0  0  0  0  0  0  0  0  0  0  0  0
  -12.4690    4.7490   10.1080 N   0  0  0  0  0  0  0  0  0  0  0  0
  -12.0160    4.1880    8.9920 N   0  0  0  0  0  0  0  0  0  0  0  0
  -10.8400    4.7900    8.7610 N   0  0  0  0  0  0  0  0  0  0  0  0
   -9.9950    4.4790    7.6090 C   0  0  0  0  0  0  0  0  0  0  0  0
   -8.6630    5.2070    7.7200 C   0  0  0  0  0  0  0  0  0  0  0  0
  -10.7490    4.8610    6.3730 C   0  0  0  0  0  0  0  0  0  0  0  0
  -11.0350    6.2020    6.1170 C   0  0  0  0  0  0  0  0  0  0  0  0
  -11.7370    6.5580    4.9650 C   0  0  0  0  0  0  0  0  0  0  0  0
  -12.1550    5.5730    4.0710 C   0  0  0  0  0  0  0  0  0  0  0  0
  -11.8700    4.2310    4.3270 C   0  0  0  0  0  0  0  0  0  0  0  0
  -11.1660    3.8760    5.4790 C   0  0  0  0  0  0  0  0  0  0  0  0
  -12.0160    7.8660    4.7150 O   0  0  0  0  0  0  0  0  0  0  0  0
   -6.8990    7.6510    9.7710 O   0  0  0  0  0  0  0  0  0  0  0  0
   -6.8932    3.0220    5.4486 N   0  0  0  0  0  0  0  0  0  0  0  0
   -7.3396    2.3431    4.4012 N   0  0  0  0  0  0  0  0  0  0  0  0
   -8.4950    2.9216    4.0212 C   0  0  0  0  0  0  0  0  0  0  0  0
   -9.4632    2.3792    2.6021 S   0  0  0  0  0  0  0  0  0  0  0  0
  -10.3672    0.9852    3.4084 C   0  0  0  0  0  0  0  0  0  0  0  0
  -11.0545    1.4253    4.7074 C   0  0  0  0  0  0  0  0  0  0  0  0
   -9.4858   -0.2322    3.6309 C   0  0  0  0  0  0  0  0  0  0  0  0
   -8.2571   -0.1694    3.3538 O   0  0  0  0  0  0  0  0  0  0  0  0
   -9.9920   -1.4644    4.1765 N   0  0  0  0  0  0  0  0  0  0  0  0
  -11.3162   -1.9956    3.9748 C   0  0  0  0  0  0  0  0  0  0  0  0
  -12.1999   -1.3200    3.3825 O   0  0  0  0  0  0  0  0  0  0  0  0
  -11.6159   -3.3306    4.4215 N   0  0  0  0  0  0  0  0  0  0  0  0
  -12.9284   -3.9771    4.2607 C   0  0  0  0  0  0  0  0  0  0  0  0
  -13.9468   -3.3421    5.2264 C   0  0  0  0  0  0  0  0  0  0  0  0
  -13.3407   -3.9935    2.7930 C   0  0  0  0  0  0  0  0  0  0  0  0
  -12.5043   -4.6494    1.8713 C   0  0  0  0  0  0  0  0  0  0  0  0
  -12.8270   -4.6846    0.5109 C   0  0  0  0  0  0  0  0  0  0  0  0
  -13.9899   -4.0663    0.0524 C   0  0  0  0  0  0  0  0  0  0  0  0
  -14.8382   -3.4189    0.9545 C   0  0  0  0  0  0  0  0  0  0  0  0
  -14.5207   -3.3814    2.3159 C   0  0  0  0  0  0  0  0  0  0  0  0
   -8.7914    3.9857    4.7944 N   0  0  0  0  0  0  0  0  0  0  0  0
   -9.8975    4.9296    4.6343 C   0  0  0  0  0  0  0  0  0  0  0  0
  1  3  4  0
  1 14  4  0
  1  2  1  0
  3  4  4  0
  4  5  4  0
  5  6  4  0
  5 22  1  0
  6  7  1  0
  6 14  4  0
  7  8  1  0
  8  9  4  0
  8 12  4  0
  9 10  4  0
 10 11  4  0
 11 12  4  0
 12 13  1  0
 13 14  1  0
 13 15  1  6
 15 16  4  0
 15 20  4  0
 16 17  4  0
 17 18  4  0
 17 21  1  0
 18 19  4  0
 19 20  4  0
 23 24  4  0
 24 25  4  0
 25 26  1  0
 26 27  1  0
 27 28  1  0
 27 29  1  0
 29 30  2  0
 29 31  1  0
 31 32  1  0
 32 33  2  0
 32 34  1  0
 34 35  1  0
 35 36  1  0
 35 37  1  0
 37 38  4  0
 38 39  4  0
 39 40  4  0
 40 41  4  0
 41 42  4  0
 25 43  4  0
 43 44  1  0
 42 37  4  0
  2 23  4  0
  2 43  4  0
M  END
$$$$

     RDKit          3D

 47 54  0  0  0  0  0  0  0  0999 V2000
   -7.6410    4.9930    6.8080 C   0  0  0  0  0  0  0  0  0  1  0  0
   -7.7310    4.0530    5.7140 C   0  0  0  0  0  0  0  0  0  2  0  0
   -6.4520    5.6300    6.8680 N   0  0  0  0  0  0  0  0  0  0  0  0
   -6.2260    6.5240    7.8670 N   0  0  0  0  0  0  0  0  0  0  0  0
   -7.1930    6.7500    8.7820 C   0  0  0  0  0  0  0  0  0  0  0  0
   -8.4240    6.1170    8.7580 C   0  0  0  0  0  0  0  0  0  0  0  0
   -9.3950    6.3570    9.7450 N   0  0  0  0  0  0  0  0  0  0  0  0
  -10.5620    5.6840    9.7600 C   0  0  0  0  0  0  0  0  0  0  0  0
  -11.5770    5.6820   10.5960 N   0  0  0  0  0  0  0  0  0  0  0  0
  -12.4690    4.7490   10.1080 N   0  0  0  0  0  0  0  0  0  0  0  0
  -12.0160    4.1880    8.9920 N   0  0  0  0  0  0  0  0  0  0  0  0
  -10.8400    4.7900    8.7610 N   0  0  0  0  0  0  0  0  0  0  0  0
   -9.9950    4.4790    7.6090 C   0  0  0  0  0  0  0  0  0  0  0  0
   -8.6630    5.2070    7.7200 C   0  0  0  0  0  0  0  0  0  0  0  0
  -10.7490    4.8610    6.3730 C   0  0  0  0  0  0  0  0  0  0  0  0
  -11.0350    6.2020    6.1170 C   0  0  0  0  0  0  0  0  0  0  0  0
  -11.7370    6.5580    4.9650 C   0  0  0  0  0  0  0  0  0  0  0  0
  -12.1550    5.5730    4.0710 C   0  0  0  0  0  0  0  0  0  0  0  0
  -11.8700    4.2310    4.3270 C   0  0  0  0  0  0  0  0  0  0  0  0
  -11.1660    3.8760    5.4790 C   0  0  0  0  0  0  0  0  0  0  0  0
  -12.0160    7.8660    4.7150 O   0  0  0  0  0  0  0  0  0  0  0  0
   -6.8990    7.6510    9.7710 O   0  0  0  0  0  0  0  0  0  0  0  0
   -6.9610    2.9583    5.5027 N   0  0  0  0  0  0  0  0  0  0  0  0
   -7.3853    2.3252    4.4173 N   0  0  0  0  0  0  0  0  0  0  0  0
   -8.4589    2.9980    3.9647 C   0  0  0  0  0  0  0  0  0  0  0  0
   -9.2596    2.6470    2.3988 S   0  0  0  0  0  0  0  0  0  0  0  0
   -8.1094    3.7001    1.4378 C   0  0  0  0  0  0  0  0  0  0  0  0
   -8.8117    4.2790    0.2461 C   0  0  0  0  0  0  0  0  0  0  0  0
   -9.8536    5.1944    0.4014 C   0  0  0  0  0  0  0  0  0  0  0  0
  -10.4441    5.7499   -0.7336 C   0  0  0  0  0  0  0  0  0  0  0  0
  -11.3836    6.5835   -0.5841 O   0  0  0  0  0  0  0  0  0  0  0  0
  -10.0033    5.3989   -1.9866 N   0  0  0  0  0  0  0  0  0  0  0  0
  -10.5757    5.9502   -3.1077 C   0  0  0  0  0  0  0  0  0  0  0  0
  -10.1301    5.5964   -4.3807 C   0  0  0  0  0  0  0  0  0  0  0  0
   -9.0949    4.6775   -4.5190 C   0  0  0  0  0  0  0  0  0  0  0  0
   -8.4966    4.1187   -3.3858 C   0  0  0  0  0  0  0  0  0  0  0  0
   -7.3468    3.1559   -3.5340 C   0  0  0  0  0  0  0  0  0  0  0  0
   -8.9670    4.4932   -2.1127 C   0  0  0  0  0  0  0  0  0  0  0  0
   -8.3955    3.9564   -1.0018 N   0  0  0  0  0  0  0  0  0  0  0  0
   -8.7456    4.0570    4.7465 N   0  0  0  0  0  0  0  0  0  0  0  0
   -9.6893    5.1059    4.4835 C   0  0  0  0  0  0  0  0  0  0  0  0
  -11.0433    4.8034    4.2687 C   0  0  0  0  0  0  0  0  0  0  0  0
  -11.9505    5.8194    3.9482 C   0  0  0  0  0  0  0  0  0  0  0  0
  -11.5115    7.1447    3.8438 C   0  0  0  0  0  0  0  0  0  0  0  0
  -12.6425    8.4164    3.4157 Cl  0  0  0  0  0  0  0  0  0  0  0  0
  -10.1636    7.4514    4.0615 C   0  0  0  0  0  0  0  0  0  0  0  0
   -9.2535    6.4356    4.3759 C   0  0  0  0  0  0  0  0  0  0  0  0
  1  3  4  0
  1 14  4  0
  1  2  1  0
  3  4  4  0
  4  5  4  0
  5  6  4  0
  5 22  1  0
  6  7  1  0
  6 14  4  0
  7  8  1  0
  8  9  4  0
  8 12  4  0
  9 10  4  0
 10 11  4  0
 11 12  4  0
 12 13  1  0
 13 14  1  0
 13 15  1  6
 15 16  4  0
 15 20  4  0
 16 17  4  0
 17 18  4  0
 17 21  1  0
 18 19  4  0
 19 20  4  0
 23 24  4  0
 24 25  4  0
 25 26  1  0
 26 27  1  0
 27 28  1  0
 28 29  4  0
 29 30  4  0
 30 31  2  0
 30 32  4  0
 32 33  4  0
 33 34  4  0
 34 35  4  0
 35 36  4  0
 36 37  1  0
 36 38  4  0
 38 39  4  0
 25 40  4  0
 40 41  1  0
 41 42  4  0
 42 43  4  0
 43 44  4  0
 44 45  1  0
 44 46  4  0
 46 47  4  0
 47 41  4  0
 39 28  4  0
 38 32  4  0
  2 23  4  0
  2 40  4  0
M  END
$$$$

     RDKit          3D

 35 40  0  0  0  0  0  0  0  0999 V2000
   -7.6410    4.9930    6.8080 C   0  0  0  0  0  0  0  0  0  1  0  0
   -7.7310    4.0530    5.7140 C   0  0  0  0  0  0  0  0  0  2  0  0
   -6.4520    5.6300    6.8680 N   0  0  0  0  0  0  0  0  0  0  0  0
   -6.2260    6.5240    7.8670 N   0  0  0  0  0  0  0  0  0  0  0  0
   -7.1930    6.7500    8.7820 C   0  0  0  0  0  0  0  0  0  0  0  0
   -8.4240    6.1170    8.7580 C   0  0  0  0  0  0  0  0  0  0  0  0
   -9.3950    6.3570    9.7450 N   0  0  0  0  0  0  0  0  0  0  0  0
  -10.5620    5.6840    9.7600 C   0  0  0  0  0  0  0  0  0  0  0  0
  -11.5770    5.6820   10.5960 N   0  0  0  0  0  0  0  0  0  0  0  0
  -12.4690    4.7490   10.1080 N   0  0  0  0  0  0  0  0  0  0  0  0
  -12.0160    4.1880    8.9920 N   0  0  0  0  0  0  0  0  0  0  0  0
  -10.8400    4.7900    8.7610 N   0  0  0  0  0  0  0  0  0  0  0  0
   -9.9950    4.4790    7.6090 C   0  0  0  0  0  0  0  0  0  0  0  0
   -8.6630    5.2070    7.7200 C   0  0  0  0  0  0  0  0  0  0  0  0
  -10.7490    4.8610    6.3730 C   0  0  0  0  0  0  0  0  0  0  0  0
  -11.0350    6.2020    6.1170 C   0  0  0  0  0  0  0  0  0  0  0  0
  -11.7370    6.5580    4.9650 C   0  0  0  0  0  0  0  0  0  0  0  0
  -12.1550    5.5730    4.0710 C   0  0  0  0  0  0  0  0  0  0  0  0
  -11.8700    4.2310    4.3270 C   0  0  0  0  0  0  0  0  0  0  0  0
  -11.1660    3.8760    5.4790 C   0  0  0  0  0  0  0  0  0  0  0  0
  -12.0160    7.8660    4.7150 O   0  0  0  0  0  0  0  0  0  0  0  0
   -6.8990    7.6510    9.7710 O   0  0  0  0  0  0  0  0  0  0  0  0
   -6.8116    3.0727    5.5046 N   0  0  0  0  0  0  0  0  0  0  0  0
   -6.8942    2.1066    4.5501 C   0  0  0  0  0  0  0  0  0  1  0  0
   -5.7894    1.1234    4.4086 C   0  0  0  0  0  0  0  0  0  2  0  0
   -6.0173   -0.1727    3.9050 C   0  0  0  0  0  0  0  0  0  0  0  0
   -4.9630   -1.0838    3.7881 C   0  0  0  0  0  0  0  0  0  0  0  0
   -3.6686   -0.7183    4.1773 C   0  0  0  0  0  0  0  0  0  0  0  0
   -2.6114   -1.6182    4.0638 O   0  0  0  0  0  0  0  0  0  0  0  0
   -3.4347    0.5611    4.6875 C   0  0  0  0  0  0  0  0  0  0  0  0
   -4.4858    1.4750    4.8071 C   0  0  0  0  0  0  0  0  0  0  0  0
   -8.0251    2.0841    3.7198 C   0  0  0  0  0  0  0  0  0  0  0  0
   -8.9920    3.0232    3.8793 N   0  0  0  0  0  0  0  0  0  0  0  0
   -8.9089    3.9873    4.8339 C   0  0  0  0  0  0  0  0  0  0  0  0
   -9.9297    4.9887    4.8956 N   0  0  0  0  0  0  0  0  0  0  0  0
  1  3  4  0
  1 14  4  0
  1  2  1  0
  3  4  4  0
  4  5  4  0
  5  6  4  0
  5 22  1  0
  6  7  1  0
  6 14  4  0
  7  8  1  0
  8  9  4  0
  8 12  4  0
  9 10  4  0
 10 11  4  0
 11 12  4  0
 12 13  1  0
 13 14  1  0
 13 15  1  6
 15 16  4  0
 15 20  4  0
 16 17  4  0
 17 18  4  0
 17 21  1  0
 18 19  4  0
 19 20  4  0
 23 24  4  0
 24 25  1  0
 25 26  4  0
 26 27  4  0
 27 28  4  0
 28 29  1  0
 28 30  4  0
 30 31  4  0
 24 32  4  0
 32 33  4  0
 33 34  4  0
 34 35  1  0
 31 25  4  0
  2 23  4  0
  2 34  4  0
M  END
$$$$

     RDKit          3D

 35 40  0  0  0  0  0  0  0  0999 V2000
   -7.6410    4.9930    6.8080 C   0  0  0  0  0  0  0  0  0  1  0  0
   -7.7310    4.0530    5.7140 C   0  0  0  0  0  0  0  0  0  2  0  0
   -6.4520    5.6300    6.8680 N   0  0  0  0  0  0  0  0  0  0  0  0
   -6.2260    6.5240    7.8670 N   0  0  0  0  0  0  0  0  0  0  0  0
   -7.1930    6.7500    8.7820 C   0  0  0  0  0  0  0  0  0  0  0  0
   -8.4240    6.1170    8.7580 C   0  0  0  0  0  0  0  0  0  0  0  0
   -9.3950    6.3570    9.7450 N   0  0  0  0  0  0  0  0  0  0  0  0
  -10.5620    5.6840    9.7600 C   0  0  0  0  0  0  0  0  0  0  0  0
  -11.5770    5.6820   10.5960 N   0  0  0  0  0  0  0  0  0  0  0  0
  -12.4690    4.7490   10.1080 N   0  0  0  0  0  0  0  0  0  0  0  0
  -12.0160    4.1880    8.9920 N   0  0  0  0  0  0  0  0  0  0  0  0
  -10.8400    4.7900    8.7610 N   0  0  0  0  0  0  0  0  0  0  0  0
   -9.9950    4.4790    7.6090 C   0  0  0  0  0  0  0  0  0  0  0  0
   -8.6630    5.2070    7.7200 C   0  0  0  0  0  0  0  0  0  0  0  0
  -10.7490    4.8610    6.3730 C   0  0  0  0  0  0  0  0  0  0  0  0
  -11.0350    6.2020    6.1170 C   0  0  0  0  0  0  0  0  0  0  0  0
  -11.7370    6.5580    4.9650 C   0  0  0  0  0  0  0  0  0  0  0  0
  -12.1550    5.5730    4.0710 C   0  0  0  0  0  0  0  0  0  0  0  0
  -11.8700    4.2310    4.3270 C   0  0  0  0  0  0  0  0  0  0  0  0
  -11.1660    3.8760    5.4790 C   0  0  0  0  0  0  0  0  0  0  0  0
  -12.0160    7.8660    4.7150 O   0  0  0  0  0  0  0  0  0  0  0  0
   -6.8990    7.6510    9.7710 O   0  0  0  0  0  0  0  0  0  0  0  0
   -6.8116    3.0729    5.5036 N   0  0  0  0  0  0  0  0  0  0  0  0
   -6.8922    2.1104    4.5451 C   0  0  0  0  0  0  0  0  0  1  0  0
   -5.7926    1.1205    4.4088 C   0  0  0  0  0  0  0  0  0  2  0  0
   -4.9892    0.8095    5.5220 C   0  0  0  0  0  0  0  0  0  0  0  0
   -3.9457   -0.1141    5.4106 C   0  0  0  0  0  0  0  0  0  0  0  0
   -3.6825   -0.7346    4.1868 C   0  0  0  0  0  0  0  0  0  0  0  0
   -2.6395   -1.6529    4.0909 O   0  0  0  0  0  0  0  0  0  0  0  0
   -4.4670   -0.4250    3.0692 C   0  0  0  0  0  0  0  0  0  0  0  0
   -5.5124    0.4975    3.1763 C   0  0  0  0  0  0  0  0  0  0  0  0
   -8.0348    2.0736    3.7316 C   0  0  0  0  0  0  0  0  0  0  0  0
   -9.0029    3.0111    3.8932 N   0  0  0  0  0  0  0  0  0  0  0  0
   -8.9109    3.9854    4.8365 C   0  0  0  0  0  0  0  0  0  0  0  0
   -9.9309    4.9874    4.8976 N   0  0  0  0  0  0  0  0  0  0  0  0
  1  3  4  0
  1 14  4  0
  1  2  1  0
  3  4  4  0
  4  5  4  0
  5  6  4  0
  5 22  1  0
  6  7  1  0
  6 14  4  0
  7  8  1  0
  8  9  4  0
  8 12  4  0
  9 10  4  0
 10 11  4  0
 11 12  4  0
 12 13  1  0
 13 14  1  0
 13 15  1  6
 15 16  4  0
 15 20  4  0
 16 17  4  0
 17 18  4  0
 17 21  1  0
 18 19  4  0
 19 20  4  0
 23 24  4  0
 24 25  1  0
 25 26  4  0
 26 27  4  0
 27 28  4  0
 28 29  1  0
 28 30  4  0
 30 31  4  0
 24 32  4  0
 32 33  4  0
 33 34  4  0
 34 35  1  0
 31 25  4  0
  2 23  4  0
  2 34  4  0
M  END
$$$$

     RDKit          3D

 43 49  0  0  0  0  0  0  0  0999 V2000
   -7.6410    4.9930    6.8080 C   0  0  0  0  0  0  0  0  0  1  0  0
   -7.7310    4.0530    5.7140 C   0  0  0  0  0  0  0  0  0  2  0  0
   -6.4520    5.6300    6.8680 N   0  0  0  0  0  0  0  0  0  0  0  0
   -6.2260    6.5240    7.8670 N   0  0  0  0  0  0  0  0  0  0  0  0
   -7.1930    6.7500    8.7820 C   0  0  0  0  0  0  0  0  0  0  0  0
   -8.4240    6.1170    8.7580 C   0  0  0  0  0  0  0  0  0  0  0  0
   -9.3950    6.3570    9.7450 N   0  0  0  0  0  0  0  0  0  0  0  0
  -10.5620    5.6840    9.7600 C   0  0  0  0  0  0  0  0  0  0  0  0
  -11.5770    5.6820   10.5960 N   0  0  0  0  0  0  0  0  0  0  0  0
  -12.4690    4.7490   10.1080 N   0  0  0  0  0  0  0  0  0  0  0  0
  -12.0160    4.1880    8.9920 N   0  0  0  0  0  0  0  0  0  0  0  0
  -10.8400    4.7900    8.7610 N   0  0  0  0  0  0  0  0  0  0  0  0
   -9.9950    4.4790    7.6090 C   0  0  0  0  0  0  0  0  0  0  0  0
   -8.6630    5.2070    7.7200 C   0  0  0  0  0  0  0  0  0  0  0  0
  -10.7490    4.8610    6.3730 C   0  0  0  0  0  0  0  0  0  0  0  0
  -11.0350    6.2020    6.1170 C   0  0  0  0  0  0  0  0  0  0  0  0
  -11.7370    6.5580    4.9650 C   0  0  0  0  0  0  0  0  0  0  0  0
  -12.1550    5.5730    4.0710 C   0  0  0  0  0  0  0  0  0  0  0  0
  -11.8700    4.2310    4.3270 C   0  0  0  0  0  0  0  0  0  0  0  0
  -11.1660    3.8760    5.4790 C   0  0  0  0  0  0  0  0  0  0  0  0
  -12.0160    7.8660    4.7150 O   0  0  0  0  0  0  0  0  0  0  0  0
   -6.8990    7.6510    9.7710 O   0  0  0  0  0  0  0  0  0  0  0  0
   -6.9678    2.8693    5.6724 C   0  0  0  0  0  0  0  0  0  0  0  0
   -7.1391    1.9144    4.6702 C   0  0  0  0  0  0  0  0  0  0  0  0
   -6.4126    0.8864    4.6507 O   0  0  0  0  0  0  0  0  0  0  0  0
   -8.0671    2.0800    3.7356 O   0  0  0  0  0  0  0  0  0  0  0  0
   -8.8690    3.1428    3.6877 C   0  0  0  0  0  0  0  0  0  0  0  0
   -9.8265    3.2531    2.6575 C   0  0  0  0  0  0  0  0  0  0  0  0
   -9.9381    2.1782    1.6063 C   0  0  0  0  0  0  0  0  0  0  0  0
  -10.6228    4.4130    2.5623 C   0  0  0  0  0  0  0  0  0  0  0  0
  -11.5263    4.5308    1.4925 O   0  0  0  0  0  0  0  0  0  0  0  0
  -12.3194    5.6844    1.2203 C   0  0  0  0  0  0  0  0  0  0  0  0
  -13.0946    5.4680   -0.0488 C   0  0  0  0  0  0  0  0  0  0  0  0
  -14.5008    5.4600   -0.0322 C   0  0  0  0  0  0  0  0  0  0  0  0
  -15.2181    5.2563   -1.2150 C   0  0  0  0  0  0  0  0  0  0  0  0
  -14.5398    5.0597   -2.4216 C   0  0  0  0  0  0  0  0  0  0  0  0
  -15.2379    4.8605   -3.5671 F   0  0  0  0  0  0  0  0  0  0  0  0
  -13.1421    5.0684   -2.4479 C   0  0  0  0  0  0  0  0  0  0  0  0
  -12.4185    5.2720   -1.2682 C   0  0  0  0  0  0  0  0  0  0  0  0
  -11.0611    5.2790   -1.3136 F   0  0  0  0  0  0  0  0  0  0  0  0
  -10.4905    5.4253    3.5294 C   0  0  0  0  0  0  0  0  0  0  0  0
   -9.5704    5.3003    4.5689 C   0  0  0  0  0  0  0  0  0  0  0  0
   -8.7524    4.1610    4.6656 C   0  0  0  0  0  0  0  0  0  0  0  0
  1  3  4  0
  1 14  4  0
  1  2  1  0
  3  4  4  0
  4  5  4  0
  5  6  4  0
  5 22  1  0
  6  7  1  0
  6 14  4  0
  7  8  1  0
  8  9  4  0
  8 12  4  0
  9 10  4  0
 10 11  4  0
 11 12  4  0
 12 13  1  0
 13 14  1  0
 13 15  1  6
 15 16  4  0
 15 20  4  0
 16 17  4  0
 17 18  4  0
 17 21  1  0
 18 19  4  0
 19 20  4  0
 23 24  4  0
 24 25  2  0
 24 26  4  0
 26 27  4  0
 27 28  4  0
 28 29  1  0
 28 30  4  0
 30 31  1  0
 31 32  1  0
 32 33  1  0
 33 34  4  0
 34 35  4  0
 35 36  4  0
 36 37  1  0
 36 38  4  0
 38 39  4  0
 39 40  1  0
 30 41  4  0
 41 42  4  0
 42 43  4  0
 43 27  4  0
 39 33  4  0
  2 23  4  0
  2 43  4  0
M  END
$$$$

     RDKit          3D

 43 49  0  0  0  0  0  0  0  0999 V2000
   -7.6410    4.9930    6.8080 C   0  0  0  0  0  0  0  0  0  1  0  0
   -7.7310    4.0530    5.7140 C   0  0  0  0  0  0  0  0  0  2  0  0
   -6.4520    5.6300    6.8680 N   0  0  0  0  0  0  0  0  0  0  0  0
   -6.2260    6.5240    7.8670 N   0  0  0  0  0  0  0  0  0  0  0  0
   -7.1930    6.7500    8.7820 C   0  0  0  0  0  0  0  0  0  0  0  0
   -8.4240    6.1170    8.7580 C   0  0  0  0  0  0  0  0  0  0  0  0
   -9.3950    6.3570    9.7450 N   0  0  0  0  0  0  0  0  0  0  0  0
  -10.5620    5.6840    9.7600 C   0  0  0  0  0  0  0  0  0  0  0  0
  -11.5770    5.6820   10.5960 N   0  0  0  0  0  0  0  0  0  0  0  0
  -12.4690    4.7490   10.1080 N   0  0  0  0  0  0  0  0  0  0  0  0
  -12.0160    4.1880    8.9920 N   0  0  0  0  0  0  0  0  0  0  0  0
  -10.8400    4.7900    8.7610 N   0  0  0  0  0  0  0  0  0  0  0  0
   -9.9950    4.4790    7.6090 C   0  0  0  0  0  0  0  0  0  0  0  0
   -8.6630    5.2070    7.7200 C   0  0  0  0  0  0  0  0  0  0  0  0
  -10.7490    4.8610    6.3730 C   0  0  0  0  0  0  0  0  0  0  0  0
  -11.0350    6.2020    6.1170 C   0  0  0  0  0  0  0  0  0  0  0  0
  -11.7370    6.5580    4.9650 C   0  0  0  0  0  0  0  0  0  0  0  0
  -12.1550    5.5730    4.0710 C   0  0  0  0  0  0  0  0  0  0  0  0
  -11.8700    4.2310    4.3270 C   0  0  0  0  0  0  0  0  0  0  0  0
  -11.1660    3.8760    5.4790 C   0  0  0  0  0  0  0  0  0  0  0  0
  -12.0160    7.8660    4.7150 O   0  0  0  0  0  0  0  0  0  0  0  0
   -6.8990    7.6510    9.7710 O   0  0  0  0  0  0  0  0  0  0  0  0
   -6.9303    2.8974    5.6437 C   0  0  0  0  0  0  0  0  0  0  0  0
   -7.1006    1.9369    4.6472 C   0  0  0  0  0  0  0  0  0  0  0  0
   -6.3428    0.9327    4.6064 O   0  0  0  0  0  0  0  0  0  0  0  0
   -8.0596    2.0723    3.7399 O   0  0  0  0  0  0  0  0  0  0  0  0
   -8.8957    3.1086    3.7154 C   0  0  0  0  0  0  0  0  0  0  0  0
   -9.8806    3.1897    2.7087 C   0  0  0  0  0  0  0  0  0  0  0  0
  -10.0203    2.0851    1.6915 C   0  0  0  0  0  0  0  0  0  0  0  0
  -10.7788    4.2756    2.6930 C   0  0  0  0  0  0  0  0  0  0  0  0
  -11.7833    4.3119    1.7113 O   0  0  0  0  0  0  0  0  0  0  0  0
  -12.7494    5.3504    1.5722 C   0  0  0  0  0  0  0  0  0  0  0  0
  -13.6303    5.0519    0.3912 C   0  0  0  0  0  0  0  0  0  0  0  0
  -13.0680    5.0190   -0.8961 C   0  0  0  0  0  0  0  0  0  0  0  0
  -13.8661    4.7409   -2.0094 C   0  0  0  0  0  0  0  0  0  0  0  0
  -15.2314    4.4929   -1.8479 C   0  0  0  0  0  0  0  0  0  0  0  0
  -16.0041    4.2238   -2.9289 F   0  0  0  0  0  0  0  0  0  0  0  0
  -15.8005    4.5222   -0.5718 C   0  0  0  0  0  0  0  0  0  0  0  0
  -15.0074    4.8000    0.5471 C   0  0  0  0  0  0  0  0  0  0  0  0
  -15.5847    4.8184    1.7753 F   0  0  0  0  0  0  0  0  0  0  0  0
  -10.6492    5.2947    3.6530 C   0  0  0  0  0  0  0  0  0  0  0  0
   -9.6624    5.2269    4.6351 C   0  0  0  0  0  0  0  0  0  0  0  0
   -8.7895    4.1267    4.6953 C   0  0  0  0  0  0  0  0  0  0  0  0
  1  3  4  0
  1 14  4  0
  1  2  1  0
  3  4  4  0
  4  5  4  0
  5  6  4  0
  5 22  1  0
  6  7  1  0
  6 14  4  0
  7  8  1  0
  8  9  4  0
  8 12  4  0
  9 10  4  0
 10 11  4  0
 11 12  4  0
 12 13  1  0
 13 14  1  0
 13 15  1  6
 15 16  4  0
 15 20  4  0
 16 17  4  0
 17 18  4  0
 17 21  1  0
 18 19  4  0
 19 20  4  0
 23 24  4  0
 24 25  2  0
 24 26  4  0
 26 27  4  0
 27 28  4  0
 28 29  1  0
 28 30  4  0
 30 31  1  0
 31 32  1  0
 32 33  1  0
 33 34  4  0
 34 35  4  0
 35 36  4  0
 36 37  1  0
 36 38  4  0
 38 39  4  0
 39 40  1  0
 30 41  4  0
 41 42  4  0
 42 43  4  0
 43 27  4  0
 39 33  4  0
  2 23  4  0
  2 43  4  0
M  END
$$$$

     RDKit          3D

 46 52  0  0  0  0  0  0  0  0999 V2000
   -7.6410    4.9930    6.8080 C   0  0  0  0  0  0  0  0  0  1  0  0
   -7.7310    4.0530    5.7140 C   0  0  0  0  0  0  0  0  0  2  0  0
   -6.4520    5.6300    6.8680 N   0  0  0  0  0  0  0  0  0  0  0  0
   -6.2260    6.5240    7.8670 N   0  0  0  0  0  0  0  0  0  0  0  0
   -7.1930    6.7500    8.7820 C   0  0  0  0  0  0  0  0  0  0  0  0
   -8.4240    6.1170    8.7580 C   0  0  0  0  0  0  0  0  0  0  0  0
   -9.3950    6.3570    9.7450 N   0  0  0  0  0  0  0  0  0  0  0  0
  -10.5620    5.6840    9.7600 C   0  0  0  0  0  0  0  0  0  0  0  0
  -11.5770    5.6820   10.5960 N   0  0  0  0  0  0  0  0  0  0  0  0
  -12.4690    4.7490   10.1080 N   0  0  0  0  0  0  0  0  0  0  0  0
  -12.0160    4.1880    8.9920 N   0  0  0  0  0  0  0  0  0  0  0  0
  -10.8400    4.7900    8.7610 N   0  0  0  0  0  0  0  0  0  0  0  0
   -9.9950    4.4790    7.6090 C   0  0  0  0  0  0  0  0  0  0  0  0
   -8.6630    5.2070    7.7200 C   0  0  0  0  0  0  0  0  0  0  0  0
  -10.7490    4.8610    6.3730 C   0  0  0  0  0  0  0  0  0  0  0  0
  -11.0350    6.2020    6.1170 C   0  0  0  0  0  0  0  0  0  0  0  0
  -11.7370    6.5580    4.9650 C   0  0  0  0  0  0  0  0  0  0  0  0
  -12.1550    5.5730    4.0710 C   0  0  0  0  0  0  0  0  0  0  0  0
  -11.8700    4.2310    4.3270 C   0  0  0  0  0  0  0  0  0  0  0  0
  -11.1660    3.8760    5.4790 C   0  0  0  0  0  0  0  0  0  0  0  0
  -12.0160    7.8660    4.7150 O   0  0  0  0  0  0  0  0  0  0  0  0
   -6.8990    7.6510    9.7710 O   0  0  0  0  0  0  0  0  0  0  0  0
   -6.8155    3.0044    5.4976 C   0  0  0  0  0  0  0  0  0  0  0  0
   -6.9610    2.0360    4.4960 C   0  0  0  0  0  0  0  0  0  0  0  0
   -5.9441    1.0331    4.3301 N   0  0  0  0  0  0  0  0  0  0  0  0
   -6.2080   -0.3040    3.8768 C   0  0  0  0  0  0  0  0  0  0  0  0
   -7.3813   -0.7642    3.9013 O   0  0  0  0  0  0  0  0  0  0  0  0
   -5.0785   -1.1900    3.4394 C   0  0  0  0  0  0  0  0  0  0  0  0
   -5.2921   -1.6712    2.0157 C   0  0  0  0  0  0  0  0  0  0  0  0
   -4.9491   -0.8385    0.9027 C   0  0  0  0  0  0  0  0  0  0  0  0
   -4.3631    0.5317    1.0849 C   0  0  0  0  0  0  0  0  0  0  0  0
   -5.1283   -1.2889   -0.3738 N   0  0  0  0  0  0  0  0  0  0  0  0
   -5.6450   -2.5191   -0.5780 C   0  0  0  0  0  0  0  0  0  0  0  0
   -5.8788   -3.0775   -1.7785 N   0  0  0  0  0  0  0  0  0  0  0  0
   -6.3991   -4.2732   -1.3985 C   0  0  0  0  0  0  0  0  0  0  0  0
   -6.9450   -5.5172   -2.5632 S   0  0  0  0  0  0  0  0  0  0  0  0
   -8.6243   -4.8256   -2.6808 C   0  0  0  0  0  0  0  0  0  0  0  0
   -6.4747   -4.4321   -0.0552 N   0  0  0  0  0  0  0  0  0  0  0  0
   -5.9917   -3.3087    0.4375 N   0  0  0  0  0  0  0  0  0  0  0  0
   -5.8501   -2.9532    1.7433 C   0  0  0  0  0  0  0  0  0  0  0  0
   -6.2438   -3.9132    2.8381 C   0  0  0  0  0  0  0  0  0  0  0  0
   -8.0722    2.0977    3.6411 C   0  0  0  0  0  0  0  0  0  0  0  0
   -9.0407    3.0892    3.8101 C   0  0  0  0  0  0  0  0  0  0  0  0
   -8.9119    4.0493    4.8320 C   0  0  0  0  0  0  0  0  0  0  0  0
   -9.8617    5.0696    5.0093 O   0  0  0  0  0  0  0  0  0  0  0  0
  -11.0720    5.1874    4.2681 C   0  0  0  0  0  0  0  0  0  0  0  0
  1  3  4  0
  1 14  4  0
  1  2  1  0
  3  4  4  0
  4  5  4  0
  5  6  4  0
  5 22  1  0
  6  7  1  0
  6 14  4  0
  7  8  1  0
  8  9  4  0
  8 12  4  0
  9 10  4  0
 10 11  4  0
 11 12  4  0
 12 13  1  0
 13 14  1  0
 13 15  1  6
 15 16  4  0
 15 20  4  0
 16 17  4  0
 17 18  4  0
 17 21  1  0
 18 19  4  0
 19 20  4  0
 23 24  4  0
 24 25  1  0
 25 26  1  0
 26 27  2  0
 26 28  1  0
 28 29  1  0
 29 30  4  0
 30 31  1  0
 30 32  4  0
 32 33  4  0
 33 34  4  0
 34 35  4  0
 35 36  1  0
 36 37  1  0
 35 38  4  0
 38 39  4  0
 39 40  4  0
 40 41  1  0
 24 42  4  0
 42 43  4  0
 43 44  4  0
 44 45  1  0
 45 46  1  0
 40 29  4  0
 39 33  4  0
  2 23  4  0
  2 44  4  0
M  END
$$$$

     RDKit          3D

 46 52  0  0  0  0  0  0  0  0999 V2000
   -7.6410    4.9930    6.8080 C   0  0  0  0  0  0  0  0  0  1  0  0
   -7.7310    4.0530    5.7140 C   0  0  0  0  0  0  0  0  0  2  0  0
   -6.4520    5.6300    6.8680 N   0  0  0  0  0  0  0  0  0  0  0  0
   -6.2260    6.5240    7.8670 N   0  0  0  0  0  0  0  0  0  0  0  0
   -7.1930    6.7500    8.7820 C   0  0  0  0  0  0  0  0  0  0  0  0
   -8.4240    6.1170    8.7580 C   0  0  0  0  0  0  0  0  0  0  0  0
   -9.3950    6.3570    9.7450 N   0  0  0  0  0  0  0  0  0  0  0  0
  -10.5620    5.6840    9.7600 C   0  0  0  0  0  0  0  0  0  0  0  0
  -11.5770    5.6820   10.5960 N   0  0  0  0  0  0  0  0  0  0  0  0
  -12.4690    4.7490   10.1080 N   0  0  0  0  0  0  0  0  0  0  0  0
  -12.0160    4.1880    8.9920 N   0  0  0  0  0  0  0  0  0  0  0  0
  -10.8400    4.7900    8.7610 N   0  0  0  0  0  0  0  0  0  0  0  0
   -9.9950    4.4790    7.6090 C   0  0  0  0  0  0  0  0  0  0  0  0
   -8.6630    5.2070    7.7200 C   0  0  0  0  0  0  0  0  0  0  0  0
  -10.7490    4.8610    6.3730 C   0  0  0  0  0  0  0  0  0  0  0  0
  -11.0350    6.2020    6.1170 C   0  0  0  0  0  0  0  0  0  0  0  0
  -11.7370    6.5580    4.9650 C   0  0  0  0  0  0  0  0  0  0  0  0
  -12.1550    5.5730    4.0710 C   0  0  0  0  0  0  0  0  0  0  0  0
  -11.8700    4.2310    4.3270 C   0  0  0  0  0  0  0  0  0  0  0  0
  -11.1660    3.8760    5.4790 C   0  0  0  0  0  0  0  0  0  0  0  0
  -12.0160    7.8660    4.7150 O   0  0  0  0  0  0  0  0  0  0  0  0
   -6.8990    7.6510    9.7710 O   0  0  0  0  0  0  0  0  0  0  0  0
   -6.7992    3.0254    5.4769 C   0  0  0  0  0  0  0  0  0  0  0  0
   -6.9460    2.0562    4.4731 C   0  0  0  0  0  0  0  0  0  0  0  0
   -5.9440    1.0491    4.2622 N   0  0  0  0  0  0  0  0  0  0  0  0
   -5.2473    0.3666    5.3174 C   0  0  0  0  0  0  0  0  0  0  0  0
   -4.1321   -0.1659    5.0675 O   0  0  0  0  0  0  0  0  0  0  0  0
   -5.8261    0.2449    6.7039 C   0  0  0  0  0  0  0  0  0  0  0  0
   -5.7972   -1.1939    7.1857 C   0  0  0  0  0  0  0  0  0  0  0  0
   -6.7916   -2.1269    6.7522 C   0  0  0  0  0  0  0  0  0  0  0  0
   -7.8910   -1.7363    5.8054 C   0  0  0  0  0  0  0  0  0  0  0  0
   -6.7834   -3.4076    7.2241 N   0  0  0  0  0  0  0  0  0  0  0  0
   -5.8219   -3.7902    8.0911 C   0  0  0  0  0  0  0  0  0  0  0  0
   -5.7144   -5.0074    8.6498 N   0  0  0  0  0  0  0  0  0  0  0  0
   -4.6151   -4.8281    9.4282 C   0  0  0  0  0  0  0  0  0  0  0  0
   -3.9386   -6.1108   10.4752 S   0  0  0  0  0  0  0  0  0  0  0  0
   -2.8111   -6.7275    9.1876 C   0  0  0  0  0  0  0  0  0  0  0  0
   -4.0914   -3.5819    9.3512 N   0  0  0  0  0  0  0  0  0  0  0  0
   -4.8731   -2.9487    8.4981 N   0  0  0  0  0  0  0  0  0  0  0  0
   -4.7914   -1.6570    8.0812 C   0  0  0  0  0  0  0  0  0  0  0  0
   -3.6879   -0.7639    8.5890 C   0  0  0  0  0  0  0  0  0  0  0  0
   -8.0676    2.0980    3.6382 C   0  0  0  0  0  0  0  0  0  0  0  0
   -9.0519    3.0698    3.8243 C   0  0  0  0  0  0  0  0  0  0  0  0
   -8.9259    4.0298    4.8478 C   0  0  0  0  0  0  0  0  0  0  0  0
   -9.8941    5.0289    5.0432 O   0  0  0  0  0  0  0  0  0  0  0  0
  -11.0849    5.1640    4.2743 C   0  0  0  0  0  0  0  0  0  0  0  0
  1  3  4  0
  1 14  4  0
  1  2  1  0
  3  4  4  0
  4  5  4  0
  5  6  4  0
  5 22  1  0
  6  7  1  0
  6 14  4  0
  7  8  1  0
  8  9  4  0
  8 12  4  0
  9 10  4  0
 10 11  4  0
 11 12  4  0
 12 13  1  0
 13 14  1  0
 13 15  1  6
 15 16  4  0
 15 20  4  0
 16 17  4  0
 17 18  4  0
 17 21  1  0
 18 19  4  0
 19 20  4  0
 23 24  4  0
 24 25  1  0
 25 26  1  0
 26 27  2  0
 26 28  1  0
 28 29  1  0
 29 30  4  0
 30 31  1  0
 30 32  4  0
 32 33  4  0
 33 34  4  0
 34 35  4  0
 35 36  1  0
 36 37  1  0
 35 38  4  0
 38 39  4  0
 39 40  4  0
 40 41  1  0
 24 42  4  0
 42 43  4  0
 43 44  4  0
 44 45  1  0
 45 46  1  0
 40 29  4  0
 39 33  4  0
  2 23  4  0
  2 44  4  0
M  END
$$$$

     RDKit          3D

 46 52  0  0  0  0  0  0  0  0999 V2000
   -7.6410    4.9930    6.8080 C   0  0  0  0  0  0  0  0  0  1  0  0
   -7.7310    4.0530    5.7140 C   0  0  0  0  0  0  0  0  0  2  0  0
   -6.4520    5.6300    6.8680 N   0  0  0  0  0  0  0  0  0  0  0  0
   -6.2260    6.5240    7.8670 N   0  0  0  0  0  0  0  0  0  0  0  0
   -7.1930    6.7500    8.7820 C   0  0  0  0  0  0  0  0  0  0  0  0
   -8.4240    6.1170    8.7580 C   0  0  0  0  0  0  0  0  0  0  0  0
   -9.3950    6.3570    9.7450 N   0  0  0  0  0  0  0  0  0  0  0  0
  -10.5620    5.6840    9.7600 C   0  0  0  0  0  0  0  0  0  0  0  0
  -11.5770    5.6820   10.5960 N   0  0  0  0  0  0  0  0  0  0  0  0
  -12.4690    4.7490   10.1080 N   0  0  0  0  0  0  0  0  0  0  0  0
  -12.0160    4.1880    8.9920 N   0  0  0  0  0  0  0  0  0  0  0  0
  -10.8400    4.7900    8.7610 N   0  0  0  0  0  0  0  0  0  0  0  0
   -9.9950    4.4790    7.6090 C   0  0  0  0  0  0  0  0  0  0  0  0
   -8.6630    5.2070    7.7200 C   0  0  0  0  0  0  0  0  0  0  0  0
  -10.7490    4.8610    6.3730 C   0  0  0  0  0  0  0  0  0  0  0  0
  -11.0350    6.2020    6.1170 C   0  0  0  0  0  0  0  0  0  0  0  0
  -11.7370    6.5580    4.9650 C   0  0  0  0  0  0  0  0  0  0  0  0
  -12.1550    5.5730    4.0710 C   0  0  0  0  0  0  0  0  0  0  0  0
  -11.8700    4.2310    4.3270 C   0  0  0  0  0  0  0  0  0  0  0  0
  -11.1660    3.8760    5.4790 C   0  0  0  0  0  0  0  0  0  0  0  0
  -12.0160    7.8660    4.7150 O   0  0  0  0  0  0  0  0  0  0  0  0
   -6.8990    7.6510    9.7710 O   0  0  0  0  0  0  0  0  0  0  0  0
   -6.7821    3.0480    5.4451 C   0  0  0  0  0  0  0  0  0  0  0  0
   -6.9093    2.1060    4.4161 C   0  0  0  0  0  0  0  0  0  0  0  0
   -5.8655    1.1397    4.2089 N   0  0  0  0  0  0  0  0  0  0  0  0
   -5.4851    0.6396    2.9174 C   0  0  0  0  0  0  0  0  0  0  0  0
   -5.9244    1.1858    1.8668 O   0  0  0  0  0  0  0  0  0  0  0  0
   -4.5464   -0.5325    2.8280 C   0  0  0  0  0  0  0  0  0  0  0  0
   -4.1108   -0.8175    1.3998 C   0  0  0  0  0  0  0  0  0  0  0  0
   -4.8653   -1.6975    0.5618 C   0  0  0  0  0  0  0  0  0  0  0  0
   -6.1127   -2.3792    1.0464 C   0  0  0  0  0  0  0  0  0  0  0  0
   -4.4558   -1.9475   -0.7164 N   0  0  0  0  0  0  0  0  0  0  0  0
   -3.3440   -1.3431   -1.1871 C   0  0  0  0  0  0  0  0  0  0  0  0
   -2.8288   -1.5055   -2.4180 N   0  0  0  0  0  0  0  0  0  0  0  0
   -1.7459   -0.6882   -2.3450 C   0  0  0  0  0  0  0  0  0  0  0  0
   -0.6164   -0.4375   -3.7095 S   0  0  0  0  0  0  0  0  0  0  0  0
    0.5284   -1.7345   -3.1521 C   0  0  0  0  0  0  0  0  0  0  0  0
   -1.6124   -0.0676   -1.1489 N   0  0  0  0  0  0  0  0  0  0  0  0
   -2.6362   -0.5004   -0.4376 N   0  0  0  0  0  0  0  0  0  0  0  0
   -2.9656   -0.1833    0.8425 C   0  0  0  0  0  0  0  0  0  0  0  0
   -2.1149    0.7803    1.6299 C   0  0  0  0  0  0  0  0  0  0  0  0
   -8.0822    2.0869    3.6482 C   0  0  0  0  0  0  0  0  0  0  0  0
   -9.0923    3.0215    3.8760 C   0  0  0  0  0  0  0  0  0  0  0  0
   -8.9523    3.9972    4.8813 C   0  0  0  0  0  0  0  0  0  0  0  0
   -9.9353    4.9793    5.0946 O   0  0  0  0  0  0  0  0  0  0  0  0
  -11.1952    5.0225    4.4308 C   0  0  0  0  0  0  0  0  0  0  0  0
  1  3  4  0
  1 14  4  0
  1  2  1  0
  3  4  4  0
  4  5  4  0
  5  6  4  0
  5 22  1  0
  6  7  1  0
  6 14  4  0
  7  8  1  0
  8  9  4  0
  8 12  4  0
  9 10  4  0
 10 11  4  0
 11 12  4  0
 12 13  1  0
 13 14  1  0
 13 15  1  6
 15 16  4  0
 15 20  4  0
 16 17  4  0
 17 18  4  0
 17 21  1  0
 18 19  4  0
 19 20  4  0
 23 24  4  0
 24 25  1  0
 25 26  1  0
 26 27  2  0
 26 28  1  0
 28 29  1  0
 29 30  4  0
 30 31  1  0
 30 32  4  0
 32 33  4  0
 33 34  4  0
 34 35  4  0
 35 36  1  0
 36 37  1  0
 35 38  4  0
 38 39  4  0
 39 40  4  0
 40 41  1  0
 24 42  4  0
 42 43  4  0
 43 44  4  0
 44 45  1  0
 45 46  1  0
 40 29  4  0
 39 33  4  0
  2 23  4  0
  2 44  4  0
M  END
$$$$

     RDKit          3D

 46 52  0  0  0  0  0  0  0  0999 V2000
   -7.6410    4.9930    6.8080 C   0  0  0  0  0  0  0  0  0  1  0  0
   -7.7310    4.0530    5.7140 C   0  0  0  0  0  0  0  0  0  2  0  0
   -6.4520    5.6300    6.8680 N   0  0  0  0  0  0  0  0  0  0  0  0
   -6.2260    6.5240    7.8670 N   0  0  0  0  0  0  0  0  0  0  0  0
   -7.1930    6.7500    8.7820 C   0  0  0  0  0  0  0  0  0  0  0  0
   -8.4240    6.1170    8.7580 C   0  0  0  0  0  0  0  0  0  0  0  0
   -9.3950    6.3570    9.7450 N   0  0  0  0  0  0  0  0  0  0  0  0
  -10.5620    5.6840    9.7600 C   0  0  0  0  0  0  0  0  0  0  0  0
  -11.5770    5.6820   10.5960 N   0  0  0  0  0  0  0  0  0  0  0  0
  -12.4690    4.7490   10.1080 N   0  0  0  0  0  0  0  0  0  0  0  0
  -12.0160    4.1880    8.9920 N   0  0  0  0  0  0  0  0  0  0  0  0
  -10.8400    4.7900    8.7610 N   0  0  0  0  0  0  0  0  0  0  0  0
   -9.9950    4.4790    7.6090 C   0  0  0  0  0  0  0  0  0  0  0  0
   -8.6630    5.2070    7.7200 C   0  0  0  0  0  0  0  0  0  0  0  0
  -10.7490    4.8610    6.3730 C   0  0  0  0  0  0  0  0  0  0  0  0
  -11.0350    6.2020    6.1170 C   0  0  0  0  0  0  0  0  0  0  0  0
  -11.7370    6.5580    4.9650 C   0  0  0  0  0  0  0  0  0  0  0  0
  -12.1550    5.5730    4.0710 C   0  0  0  0  0  0  0  0  0  0  0  0
  -11.8700    4.2310    4.3270 C   0  0  0  0  0  0  0  0  0  0  0  0
  -11.1660    3.8760    5.4790 C   0  0  0  0  0  0  0  0  0  0  0  0
  -12.0160    7.8660    4.7150 O   0  0  0  0  0  0  0  0  0  0  0  0
   -6.8990    7.6510    9.7710 O   0  0  0  0  0  0  0  0  0  0  0  0
   -6.7752    3.0556    5.4375 C   0  0  0  0  0  0  0  0  0  0  0  0
   -6.8898    2.1196    4.3993 C   0  0  0  0  0  0  0  0  0  0  0  0
   -5.8029    1.2103    4.1444 N   0  0  0  0  0  0  0  0  0  0  0  0
   -5.9398   -0.0216    3.4166 C   0  0  0  0  0  0  0  0  0  0  0  0
   -7.0112   -0.6785    3.4862 O   0  0  0  0  0  0  0  0  0  0  0  0
   -4.8191   -0.5365    2.5495 C   0  0  0  0  0  0  0  0  0  0  0  0
   -3.4707   -0.4635    3.2515 C   0  0  0  0  0  0  0  0  0  0  0  0
   -2.5649    0.6202    3.0119 C   0  0  0  0  0  0  0  0  0  0  0  0
   -2.8823    1.7346    2.0538 C   0  0  0  0  0  0  0  0  0  0  0  0
   -1.3551    0.6531    3.6410 N   0  0  0  0  0  0  0  0  0  0  0  0
   -1.0258   -0.3349    4.5001 C   0  0  0  0  0  0  0  0  0  0  0  0
    0.1356   -0.4339    5.1630 N   0  0  0  0  0  0  0  0  0  0  0  0
   -0.0618   -1.5947    5.8402 C   0  0  0  0  0  0  0  0  0  0  0  0
    1.1612   -2.3085    6.9374 S   0  0  0  0  0  0  0  0  0  0  0  0
    0.5444   -1.4011    8.3947 C   0  0  0  0  0  0  0  0  0  0  0  0
   -1.2637   -2.1667    5.6006 N   0  0  0  0  0  0  0  0  0  0  0  0
   -1.8524   -1.3475    4.7530 N   0  0  0  0  0  0  0  0  0  0  0  0
   -3.0793   -1.4689    4.1791 C   0  0  0  0  0  0  0  0  0  0  0  0
   -3.9524   -2.6567    4.4962 C   0  0  0  0  0  0  0  0  0  0  0  0
   -8.0333    2.1423    3.5882 C   0  0  0  0  0  0  0  0  0  0  0  0
   -9.0508    3.0709    3.8222 C   0  0  0  0  0  0  0  0  0  0  0  0
   -8.9385    4.0136    4.8617 C   0  0  0  0  0  0  0  0  0  0  0  0
   -9.9292    4.9869    5.0826 O   0  0  0  0  0  0  0  0  0  0  0  0
  -11.1398    5.0953    4.3409 C   0  0  0  0  0  0  0  0  0  0  0  0
  1  3  4  0
  1 14  4  0
  1  2  1  0
  3  4  4  0
  4  5  4  0
  5  6  4  0
  5 22  1  0
  6  7  1  0
  6 14  4  0
  7  8  1  0
  8  9  4  0
  8 12  4  0
  9 10  4  0
 10 11  4  0
 11 12  4  0
 12 13  1  0
 13 14  1  0
 13 15  1  6
 15 16  4  0
 15 20  4  0
 16 17  4  0
 17 18  4  0
 17 21  1  0
 18 19  4  0
 19 20  4  0
 23 24  4  0
 24 25  1  0
 25 26  1  0
 26 27  2  0
 26 28  1  0
 28 29  1  0
 29 30  4  0
 30 31  1  0
 30 32  4  0
 32 33  4  0
 33 34  4  0
 34 35  4  0
 35 36  1  0
 36 37  1  0
 35 38  4  0
 38 39  4  0
 39 40  4  0
 40 41  1  0
 24 42  4  0
 42 43  4  0
 43 44  4  0
 44 45  1  0
 45 46  1  0
 40 29  4  0
 39 33  4  0
  2 23  4  0
  2 44  4  0
M  END
$$$$

     RDKit          3D

 34 39  0  0  0  0  0  0  0  0999 V2000
   -7.6410    4.9930    6.8080 C   0  0  0  0  0  0  0  0  0  1  0  0
   -7.7310    4.0530    5.7140 C   0  0  0  0  0  0  0  0  0  2  0  0
   -6.4520    5.6300    6.8680 N   0  0  0  0  0  0  0  0  0  0  0  0
   -6.2260    6.5240    7.8670 N   0  0  0  0  0  0  0  0  0  0  0  0
   -7.1930    6.7500    8.7820 C   0  0  0  0  0  0  0  0  0  0  0  0
   -8.4240    6.1170    8.7580 C   0  0  0  0  0  0  0  0  0  0  0  0
   -9.3950    6.3570    9.7450 N   0  0  0  0  0  0  0  0  0  0  0  0
  -10.5620    5.6840    9.7600 C   0  0  0  0  0  0  0  0  0  0  0  0
  -11.5770    5.6820   10.5960 N   0  0  0  0  0  0  0  0  0  0  0  0
  -12.4690    4.7490   10.1080 N   0  0  0  0  0  0  0  0  0  0  0  0
  -12.0160    4.1880    8.9920 N   0  0  0  0  0  0  0  0  0  0  0  0
  -10.8400    4.7900    8.7610 N   0  0  0  0  0  0  0  0  0  0  0  0
   -9.9950    4.4790    7.6090 C   0  0  0  0  0  0  0  0  0  0  0  0
   -8.6630    5.2070    7.7200 C   0  0  0  0  0  0  0  0  0  0  0  0
  -10.7490    4.8610    6.3730 C   0  0  0  0  0  0  0  0  0  0  0  0
  -11.0350    6.2020    6.1170 C   0  0  0  0  0  0  0  0  0  0  0  0
  -11.7370    6.5580    4.9650 C   0  0  0  0  0  0  0  0  0  0  0  0
  -12.1550    5.5730    4.0710 C   0  0  0  0  0  0  0  0  0  0  0  0
  -11.8700    4.2310    4.3270 C   0  0  0  0  0  0  0  0  0  0  0  0
  -11.1660    3.8760    5.4790 C   0  0  0  0  0  0  0  0  0  0  0  0
  -12.0160    7.8660    4.7150 O   0  0  0  0  0  0  0  0  0  0  0  0
   -6.8990    7.6510    9.7710 O   0  0  0  0  0  0  0  0  0  0  0  0
   -7.0431    2.8813    5.6065 N   0  0  0  0  0  0  0  0  0  0  0  0
   -7.4773    2.1958    4.5555 N   0  0  0  0  0  0  0  0  0  0  0  0
   -8.4743    2.9219    4.0199 C   0  0  0  0  0  0  0  0  0  0  0  0
   -9.2187    2.5892    2.8953 C   0  0  0  0  0  0  0  0  0  0  0  0
  -10.2036    3.5073    2.4871 C   0  0  0  0  0  0  0  0  0  0  0  0
  -11.0469    3.2359    1.3112 C   0  0  0  0  0  0  0  0  0  0  0  0
  -11.9192    4.0710    0.9541 O   0  0  0  0  0  0  0  0  0  0  0  0
  -10.8928    2.0609    0.5844 O   0  0  0  0  0  0  0  0  0  0  0  0
  -10.3727    4.6742    3.1816 N   0  0  0  0  0  0  0  0  0  0  0  0
   -9.6189    4.9764    4.2780 C   0  0  0  0  0  0  0  0  0  0  0  0
   -9.8266    6.2939    4.9599 C   0  0  0  0  0  0  0  0  0  0  0  0
   -8.6929    4.0618    4.6917 N   0  0  0  0  0  0  0  0  0  0  0  0
  1  3  4  0
  1 14  4  0
  1  2  1  0
  3  4  4  0
  4  5  4  0
  5  6  4  0
  5 22  1  0
  6  7  1  0
  6 14  4  0
  7  8  1  0
  8  9  4  0
  8 12  4  0
  9 10  4  0
 10 11  4  0
 11 12  4  0
 12 13  1  0
 13 14  1  0
 13 15  1  6
 15 16  4  0
 15 20  4  0
 16 17  4  0
 17 18  4  0
 17 21  1  0
 18 19  4  0
 19 20  4  0
 23 24  4  0
 24 25  4  0
 25 26  4  0
 26 27  4  0
 27 28  1  0
 28 29  2  0
 28 30  1  0
 27 31  4  0
 31 32  4  0
 32 33  1  0
 32 34  4  0
 34 25  4  0
  2 23  4  0
  2 34  4  0
M  CHG  1  30  -1
M  END
$$$$

     RDKit          3D

 34 39  0  0  0  0  0  0  0  0999 V2000
   -7.6410    4.9930    6.8080 C   0  0  0  0  0  0  0  0  0  1  0  0
   -7.7310    4.0530    5.7140 C   0  0  0  0  0  0  0  0  0  2  0  0
   -6.4520    5.6300    6.8680 N   0  0  0  0  0  0  0  0  0  0  0  0
   -6.2260    6.5240    7.8670 N   0  0  0  0  0  0  0  0  0  0  0  0
   -7.1930    6.7500    8.7820 C   0  0  0  0  0  0  0  0  0  0  0  0
   -8.4240    6.1170    8.7580 C   0  0  0  0  0  0  0  0  0  0  0  0
   -9.3950    6.3570    9.7450 N   0  0  0  0  0  0  0  0  0  0  0  0
  -10.5620    5.6840    9.7600 C   0  0  0  0  0  0  0  0  0  0  0  0
  -11.5770    5.6820   10.5960 N   0  0  0  0  0  0  0  0  0  0  0  0
  -12.4690    4.7490   10.1080 N   0  0  0  0  0  0  0  0  0  0  0  0
  -12.0160    4.1880    8.9920 N   0  0  0  0  0  0  0  0  0  0  0  0
  -10.8400    4.7900    8.7610 N   0  0  0  0  0  0  0  0  0  0  0  0
   -9.9950    4.4790    7.6090 C   0  0  0  0  0  0  0  0  0  0  0  0
   -8.6630    5.2070    7.7200 C   0  0  0  0  0  0  0  0  0  0  0  0
  -10.7490    4.8610    6.3730 C   0  0  0  0  0  0  0  0  0  0  0  0
  -11.0350    6.2020    6.1170 C   0  0  0  0  0  0  0  0  0  0  0  0
  -11.7370    6.5580    4.9650 C   0  0  0  0  0  0  0  0  0  0  0  0
  -12.1550    5.5730    4.0710 C   0  0  0  0  0  0  0  0  0  0  0  0
  -11.8700    4.2310    4.3270 C   0  0  0  0  0  0  0  0  0  0  0  0
  -11.1660    3.8760    5.4790 C   0  0  0  0  0  0  0  0  0  0  0  0
  -12.0160    7.8660    4.7150 O   0  0  0  0  0  0  0  0  0  0  0  0
   -6.8990    7.6510    9.7710 O   0  0  0  0  0  0  0  0  0  0  0  0
   -7.0417    2.8824    5.6052 N   0  0  0  0  0  0  0  0  0  0  0  0
   -7.4769    2.1961    4.5551 N   0  0  0  0  0  0  0  0  0  0  0  0
   -8.4759    2.9206    4.0214 C   0  0  0  0  0  0  0  0  0  0  0  0
   -9.2219    2.5868    2.8982 C   0  0  0  0  0  0  0  0  0  0  0  0
  -10.2095    3.5041    2.4915 C   0  0  0  0  0  0  0  0  0  0  0  0
  -11.0584    3.2380    1.3181 C   0  0  0  0  0  0  0  0  0  0  0  0
  -10.9260    2.1760    0.6534 O   0  0  0  0  0  0  0  0  0  0  0  0
  -12.0195    4.1652    0.9344 O   0  0  0  0  0  0  0  0  0  0  0  0
  -10.3784    4.6703    3.1862 N   0  0  0  0  0  0  0  0  0  0  0  0
   -9.6229    4.9738    4.2810 C   0  0  0  0  0  0  0  0  0  0  0  0
   -9.8309    6.2912    4.9627 C   0  0  0  0  0  0  0  0  0  0  0  0
   -8.6950    4.0603    4.6933 N   0  0  0  0  0  0  0  0  0  0  0  0
  1  3  4  0
  1 14  4  0
  1  2  1  0
  3  4  4  0
  4  5  4  0
  5  6  4  0
  5 22  1  0
  6  7  1  0
  6 14  4  0
  7  8  1  0
  8  9  4  0
  8 12  4  0
  9 10  4  0
 10 11  4  0
 11 12  4  0
 12 13  1  0
 13 14  1  0
 13 15  1  6
 15 16  4  0
 15 20  4  0
 16 17  4  0
 17 18  4  0
 17 21  1  0
 18 19  4  0
 19 20  4  0
 23 24  4  0
 24 25  4  0
 25 26  4  0
 26 27  4  0
 27 28  1  0
 28 29  2  0
 28 30  1  0
 27 31  4  0
 31 32  4  0
 32 33  1  0
 32 34  4  0
 34 25  4  0
  2 23  4  0
  2 34  4  0
M  CHG  1  30  -1
M  END
$$$$

     RDKit          3D

 43 48  0  0  0  0  0  0  0  0999 V2000
   -7.6410    4.9930    6.8080 C   0  0  0  0  0  0  0  0  0  1  0  0
   -7.7310    4.0530    5.7140 C   0  0  0  0  0  0  0  0  0  2  0  0
   -6.4520    5.6300    6.8680 N   0  0  0  0  0  0  0  0  0  0  0  0
   -6.2260    6.5240    7.8670 N   0  0  0  0  0  0  0  0  0  0  0  0
   -7.1930    6.7500    8.7820 C   0  0  0  0  0  0  0  0  0  0  0  0
   -8.4240    6.1170    8.7580 C   0  0  0  0  0  0  0  0  0  0  0  0
   -9.3950    6.3570    9.7450 N   0  0  0  0  0  0  0  0  0  0  0  0
  -10.5620    5.6840    9.7600 C   0  0  0  0  0  0  0  0  0  0  0  0
  -11.5770    5.6820   10.5960 N   0  0  0  0  0  0  0  0  0  0  0  0
  -12.4690    4.7490   10.1080 N   0  0  0  0  0  0  0  0  0  0  0  0
  -12.0160    4.1880    8.9920 N   0  0  0  0  0  0  0  0  0  0  0  0
  -10.8400    4.7900    8.7610 N   0  0  0  0  0  0  0  0  0  0  0  0
   -9.9950    4.4790    7.6090 C   0  0  0  0  0  0  0  0  0  0  0  0
   -8.6630    5.2070    7.7200 C   0  0  0  0  0  0  0  0  0  0  0  0
  -10.7490    4.8610    6.3730 C   0  0  0  0  0  0  0  0  0  0  0  0
  -11.0350    6.2020    6.1170 C   0  0  0  0  0  0  0  0  0  0  0  0
  -11.7370    6.5580    4.9650 C   0  0  0  0  0  0  0  0  0  0  0  0
  -12.1550    5.5730    4.0710 C   0  0  0  0  0  0  0  0  0  0  0  0
  -11.8700    4.2310    4.3270 C   0  0  0  0  0  0  0  0  0  0  0  0
  -11.1660    3.8760    5.4790 C   0  0  0  0  0  0  0  0  0  0  0  0
  -12.0160    7.8660    4.7150 O   0  0  0  0  0  0  0  0  0  0  0  0
   -6.8990    7.6510    9.7710 O   0  0  0  0  0  0  0  0  0  0  0  0
   -6.8631    3.0626    5.3906 N   0  0  0  0  0  0  0  0  0  0  0  0
   -7.3447    2.3518    4.3821 N   0  0  0  0  0  0  0  0  0  0  0  0
   -8.5501    2.8694    4.0777 C   0  0  0  0  0  0  0  0  0  0  0  0
   -9.5768    2.2578    2.7354 S   0  0  0  0  0  0  0  0  0  0  0  0
   -8.8760    3.3880    1.4880 C   0  0  0  0  0  0  0  0  0  0  0  0
   -7.4671    2.9915    1.1601 C   0  0  0  0  0  0  0  0  0  0  0  0
   -6.5146    3.7289    1.5287 O   0  0  0  0  0  0  0  0  0  0  0  0
   -7.1805    1.7483    0.5168 N   0  0  0  0  0  0  0  0  0  0  0  0
   -7.9040    1.2617   -0.6224 C   0  0  0  0  0  0  0  0  0  0  0  0
   -7.9944    0.0160   -0.8055 O   0  0  0  0  0  0  0  0  0  0  0  0
   -8.4287    2.1770   -1.6018 N   0  0  0  0  0  0  0  0  0  0  0  0
   -8.9935    1.7268   -2.8777 C   0  0  0  0  0  0  0  0  0  0  0  0
   -8.5388    2.6598   -4.0092 C   0  0  0  0  0  0  0  0  0  0  0  0
  -10.5051    1.6852   -2.8007 C   0  0  0  0  0  0  0  0  0  0  0  0
  -11.2398    2.8167   -2.3978 C   0  0  0  0  0  0  0  0  0  0  0  0
  -12.6355    2.7942   -2.4093 C   0  0  0  0  0  0  0  0  0  0  0  0
  -13.3161    1.6411   -2.8156 C   0  0  0  0  0  0  0  0  0  0  0  0
  -12.5988    0.5077   -3.2025 C   0  0  0  0  0  0  0  0  0  0  0  0
  -11.1984    0.5290   -3.1892 C   0  0  0  0  0  0  0  0  0  0  0  0
   -8.8569    3.9165    4.8696 N   0  0  0  0  0  0  0  0  0  0  0  0
  -10.0639    4.7439    4.8437 C   0  0  0  0  0  0  0  0  0  0  0  0
  1  3  4  0
  1 14  4  0
  1  2  1  0
  3  4  4  0
  4  5  4  0
  5  6  4  0
  5 22  1  0
  6  7  1  0
  6 14  4  0
  7  8  1  0
  8  9  4  0
  8 12  4  0
  9 10  4  0
 10 11  4  0
 11 12  4  0
 12 13  1  0
 13 14  1  0
 13 15  1  6
 15 16  4  0
 15 20  4  0
 16 17  4  0
 17 18  4  0
 17 21  1  0
 18 19  4  0
 19 20  4  0
 23 24  4  0
 24 25  4  0
 25 26  1  0
 26 27  1  0
 27 28  1  0
 28 29  2  0
 28 30  1  0
 30 31  1  0
 31 32  2  0
 31 33  1  0
 33 34  1  0
 34 35  1  0
 34 36  1  0
 36 37  4  0
 37 38  4  0
 38 39  4  0
 39 40  4  0
 40 41  4  0
 25 42  4  0
 42 43  1  0
 41 36  4  0
  2 23  4  0
  2 42  4  0
M  END
$$$$

     RDKit          3D

 43 48  0  0  0  0  0  0  0  0999 V2000
   -7.6410    4.9930    6.8080 C   0  0  0  0  0  0  0  0  0  1  0  0
   -7.7310    4.0530    5.7140 C   0  0  0  0  0  0  0  0  0  2  0  0
   -6.4520    5.6300    6.8680 N   0  0  0  0  0  0  0  0  0  0  0  0
   -6.2260    6.5240    7.8670 N   0  0  0  0  0  0  0  0  0  0  0  0
   -7.1930    6.7500    8.7820 C   0  0  0  0  0  0  0  0  0  0  0  0
   -8.4240    6.1170    8.7580 C   0  0  0  0  0  0  0  0  0  0  0  0
   -9.3950    6.3570    9.7450 N   0  0  0  0  0  0  0  0  0  0  0  0
  -10.5620    5.6840    9.7600 C   0  0  0  0  0  0  0  0  0  0  0  0
  -11.5770    5.6820   10.5960 N   0  0  0  0  0  0  0  0  0  0  0  0
  -12.4690    4.7490   10.1080 N   0  0  0  0  0  0  0  0  0  0  0  0
  -12.0160    4.1880    8.9920 N   0  0  0  0  0  0  0  0  0  0  0  0
  -10.8400    4.7900    8.7610 N   0  0  0  0  0  0  0  0  0  0  0  0
   -9.9950    4.4790    7.6090 C   0  0  0  0  0  0  0  0  0  0  0  0
   -8.6630    5.2070    7.7200 C   0  0  0  0  0  0  0  0  0  0  0  0
  -10.7490    4.8610    6.3730 C   0  0  0  0  0  0  0  0  0  0  0  0
  -11.0350    6.2020    6.1170 C   0  0  0  0  0  0  0  0  0  0  0  0
  -11.7370    6.5580    4.9650 C   0  0  0  0  0  0  0  0  0  0  0  0
  -12.1550    5.5730    4.0710 C   0  0  0  0  0  0  0  0  0  0  0  0
  -11.8700    4.2310    4.3270 C   0  0  0  0  0  0  0  0  0  0  0  0
  -11.1660    3.8760    5.4790 C   0  0  0  0  0  0  0  0  0  0  0  0
  -12.0160    7.8660    4.7150 O   0  0  0  0  0  0  0  0  0  0  0  0
   -6.8990    7.6510    9.7710 O   0  0  0  0  0  0  0  0  0  0  0  0
   -6.8070    3.1513    5.3248 N   0  0  0  0  0  0  0  0  0  0  0  0
   -7.2762    2.4262    4.3203 N   0  0  0  0  0  0  0  0  0  0  0  0
   -8.5262    2.8587    4.0770 C   0  0  0  0  0  0  0  0  0  0  0  0
   -9.5690    2.1763    2.7825 S   0  0  0  0  0  0  0  0  0  0  0  0
   -8.7520    3.0979    1.4365 C   0  0  0  0  0  0  0  0  0  0  0  0
   -9.1665    4.5422    1.4396 C   0  0  0  0  0  0  0  0  0  0  0  0
   -8.2960    5.4229    1.6690 O   0  0  0  0  0  0  0  0  0  0  0  0
  -10.5327    4.9443    1.2609 N   0  0  0  0  0  0  0  0  0  0  0  0
  -11.5097    4.1733    0.5535 C   0  0  0  0  0  0  0  0  0  0  0  0
  -12.7044    4.1798    0.9561 O   0  0  0  0  0  0  0  0  0  0  0  0
  -11.1529    3.4797   -0.6542 N   0  0  0  0  0  0  0  0  0  0  0  0
  -11.9310    2.3883   -1.2602 C   0  0  0  0  0  0  0  0  0  0  0  0
  -12.4535    1.4034   -0.2029 C   0  0  0  0  0  0  0  0  0  0  0  0
  -13.0495    2.8867   -2.1626 C   0  0  0  0  0  0  0  0  0  0  0  0
  -13.6812    1.9703   -3.0216 C   0  0  0  0  0  0  0  0  0  0  0  0
  -14.7080    2.3826   -3.8761 C   0  0  0  0  0  0  0  0  0  0  0  0
  -15.1178    3.7157   -3.8860 C   0  0  0  0  0  0  0  0  0  0  0  0
  -14.4959    4.6399   -3.0469 C   0  0  0  0  0  0  0  0  0  0  0  0
  -13.4642    4.2343   -2.1934 C   0  0  0  0  0  0  0  0  0  0  0  0
   -8.8776    3.8571    4.9113 N   0  0  0  0  0  0  0  0  0  0  0  0
  -10.1524    4.5682    4.9741 C   0  0  0  0  0  0  0  0  0  0  0  0
  1  3  4  0
  1 14  4  0
  1  2  1  0
  3  4  4  0
  4  5  4  0
  5  6  4  0
  5 22  1  0
  6  7  1  0
  6 14  4  0
  7  8  1  0
  8  9  4  0
  8 12  4  0
  9 10  4  0
 10 11  4  0
 11 12  4  0
 12 13  1  0
 13 14  1  0
 13 15  1  6
 15 16  4  0
 15 20  4  0
 16 17  4  0
 17 18  4  0
 17 21  1  0
 18 19  4  0
 19 20  4  0
 23 24  4  0
 24 25  4  0
 25 26  1  0
 26 27  1  0
 27 28  1  0
 28 29  2  0
 28 30  1  0
 30 31  1  0
 31 32  2  0
 31 33  1  0
 33 34  1  0
 34 35  1  0
 34 36  1  0
 36 37  4  0
 37 38  4  0
 38 39  4  0
 39 40  4  0
 40 41  4  0
 25 42  4  0
 42 43  1  0
 41 36  4  0
  2 23  4  0
  2 42  4  0
M  END
$$$$

     RDKit          3D

 43 48  0  0  0  0  0  0  0  0999 V2000
   -7.6410    4.9930    6.8080 C   0  0  0  0  0  0  0  0  0  1  0  0
   -7.7310    4.0530    5.7140 C   0  0  0  0  0  0  0  0  0  2  0  0
   -6.4520    5.6300    6.8680 N   0  0  0  0  0  0  0  0  0  0  0  0
   -6.2260    6.5240    7.8670 N   0  0  0  0  0  0  0  0  0  0  0  0
   -7.1930    6.7500    8.7820 C   0  0  0  0  0  0  0  0  0  0  0  0
   -8.4240    6.1170    8.7580 C   0  0  0  0  0  0  0  0  0  0  0  0
   -9.3950    6.3570    9.7450 N   0  0  0  0  0  0  0  0  0  0  0  0
  -10.5620    5.6840    9.7600 C   0  0  0  0  0  0  0  0  0  0  0  0
  -11.5770    5.6820   10.5960 N   0  0  0  0  0  0  0  0  0  0  0  0
  -12.4690    4.7490   10.1080 N   0  0  0  0  0  0  0  0  0  0  0  0
  -12.0160    4.1880    8.9920 N   0  0  0  0  0  0  0  0  0  0  0  0
  -10.8400    4.7900    8.7610 N   0  0  0  0  0  0  0  0  0  0  0  0
   -9.9950    4.4790    7.6090 C   0  0  0  0  0  0  0  0  0  0  0  0
   -8.6630    5.2070    7.7200 C   0  0  0  0  0  0  0  0  0  0  0  0
  -10.7490    4.8610    6.3730 C   0  0  0  0  0  0  0  0  0  0  0  0
  -11.0350    6.2020    6.1170 C   0  0  0  0  0  0  0  0  0  0  0  0
  -11.7370    6.5580    4.9650 C   0  0  0  0  0  0  0  0  0  0  0  0
  -12.1550    5.5730    4.0710 C   0  0  0  0  0  0  0  0  0  0  0  0
  -11.8700    4.2310    4.3270 C   0  0  0  0  0  0  0  0  0  0  0  0
  -11.1660    3.8760    5.4790 C   0  0  0  0  0  0  0  0  0  0  0  0
  -12.0160    7.8660    4.7150 O   0  0  0  0  0  0  0  0  0  0  0  0
   -6.8990    7.6510    9.7710 O   0  0  0  0  0  0  0  0  0  0  0  0
   -6.7416    3.2957    5.1921 N   0  0  0  0  0  0  0  0  0  0  0  0
   -7.2132    2.5304    4.2210 N   0  0  0  0  0  0  0  0  0  0  0  0
   -8.5351    2.7862    4.1275 C   0  0  0  0  0  0  0  0  0  0  0  0
   -9.6166    1.9734    2.9487 S   0  0  0  0  0  0  0  0  0  0  0  0
   -9.4180    3.2295    1.6397 C   0  0  0  0  0  0  0  0  0  0  0  0
   -8.3047    2.8600    0.7068 C   0  0  0  0  0  0  0  0  0  0  0  0
   -7.1844    2.5614    1.1974 O   0  0  0  0  0  0  0  0  0  0  0  0
   -8.4788    2.7779   -0.7197 N   0  0  0  0  0  0  0  0  0  0  0  0
   -9.4069    3.5554   -1.4902 C   0  0  0  0  0  0  0  0  0  0  0  0
  -10.0461    4.5017   -0.9598 O   0  0  0  0  0  0  0  0  0  0  0  0
   -9.5879    3.2519   -2.8824 N   0  0  0  0  0  0  0  0  0  0  0  0
  -10.5086    3.9821   -3.7634 C   0  0  0  0  0  0  0  0  0  0  0  0
   -9.7560    4.4732   -4.9990 C   0  0  0  0  0  0  0  0  0  0  0  0
  -11.6911    3.1225   -4.1780 C   0  0  0  0  0  0  0  0  0  0  0  0
  -11.5803    1.7279   -4.3380 C   0  0  0  0  0  0  0  0  0  0  0  0
  -12.6843    0.9732   -4.7660 C   0  0  0  0  0  0  0  0  0  0  0  0
  -13.8923    1.5986   -5.0671 C   0  0  0  0  0  0  0  0  0  0  0  0
  -14.0190    2.9811   -4.9192 C   0  0  0  0  0  0  0  0  0  0  0  0
  -12.9271    3.7406   -4.4746 C   0  0  0  0  0  0  0  0  0  0  0  0
   -8.9290    3.7158    5.0205 N   0  0  0  0  0  0  0  0  0  0  0  0
  -10.2660    4.2936    5.1693 C   0  0  0  0  0  0  0  0  0  0  0  0
  1  3  4  0
  1 14  4  0
  1  2  1  0
  3  4  4  0
  4  5  4  0
  5  6  4  0
  5 22  1  0
  6  7  1  0
  6 14  4  0
  7  8  1  0
  8  9  4  0
  8 12  4  0
  9 10  4  0
 10 11  4  0
 11 12  4  0
 12 13  1  0
 13 14  1  0
 13 15  1  6
 15 16  4  0
 15 20  4  0
 16 17  4  0
 17 18  4  0
 17 21  1  0
 18 19  4  0
 19 20  4  0
 23 24  4  0
 24 25  4  0
 25 26  1  0
 26 27  1  0
 27 28  1  0
 28 29  2  0
 28 30  1  0
 30 31  1  0
 31 32  2  0
 31 33  1  0
 33 34  1  0
 34 35  1  0
 34 36  1  0
 36 37  4  0
 37 38  4  0
 38 39  4  0
 39 40  4  0
 40 41  4  0
 25 42  4  0
 42 43  1  0
 41 36  4  0
  2 23  4  0
  2 42  4  0
M  END
$$$$

     RDKit          3D

 41 47  0  0  0  0  0  0  0  0999 V2000
   -7.6410    4.9930    6.8080 C   0  0  0  0  0  0  0  0  0  1  0  0
   -7.7310    4.0530    5.7140 C   0  0  0  0  0  0  0  0  0  2  0  0
   -6.4520    5.6300    6.8680 N   0  0  0  0  0  0  0  0  0  0  0  0
   -6.2260    6.5240    7.8670 N   0  0  0  0  0  0  0  0  0  0  0  0
   -7.1930    6.7500    8.7820 C   0  0  0  0  0  0  0  0  0  0  0  0
   -8.4240    6.1170    8.7580 C   0  0  0  0  0  0  0  0  0  0  0  0
   -9.3950    6.3570    9.7450 N   0  0  0  0  0  0  0  0  0  0  0  0
  -10.5620    5.6840    9.7600 C   0  0  0  0  0  0  0  0  0  0  0  0
  -11.5770    5.6820   10.5960 N   0  0  0  0  0  0  0  0  0  0  0  0
  -12.4690    4.7490   10.1080 N   0  0  0  0  0  0  0  0  0  0  0  0
  -12.0160    4.1880    8.9920 N   0  0  0  0  0  0  0  0  0  0  0  0
  -10.8400    4.7900    8.7610 N   0  0  0  0  0  0  0  0  0  0  0  0
   -9.9950    4.4790    7.6090 C   0  0  0  0  0  0  0  0  0  0  0  0
   -8.6630    5.2070    7.7200 C   0  0  0  0  0  0  0  0  0  0  0  0
  -10.7490    4.8610    6.3730 C   0  0  0  0  0  0  0  0  0  0  0  0
  -11.0350    6.2020    6.1170 C   0  0  0  0  0  0  0  0  0  0  0  0
  -11.7370    6.5580    4.9650 C   0  0  0  0  0  0  0  0  0  0  0  0
  -12.1550    5.5730    4.0710 C   0  0  0  0  0  0  0  0  0  0  0  0
  -11.8700    4.2310    4.3270 C   0  0  0  0  0  0  0  0  0  0  0  0
  -11.1660    3.8760    5.4790 C   0  0  0  0  0  0  0  0  0  0  0  0
  -12.0160    7.8660    4.7150 O   0  0  0  0  0  0  0  0  0  0  0  0
   -6.8990    7.6510    9.7710 O   0  0  0  0  0  0  0  0  0  0  0  0
   -6.7639    3.2538    5.2253 N   0  0  0  0  0  0  0  0  0  0  0  0
   -7.2218    2.4759    4.2552 N   0  0  0  0  0  0  0  0  0  0  0  0
   -6.3984    1.5201    3.5579 C   0  0  0  0  0  0  0  0  0  0  0  0
   -6.7506    1.0929    2.4256 O   0  0  0  0  0  0  0  0  0  0  0  0
   -5.1218    1.0390    4.1353 C   0  0  0  0  0  0  0  0  0  0  0  0
   -4.9787    0.8540    5.5228 C   0  0  0  0  0  0  0  0  0  0  0  0
   -3.7718    0.3872    6.0528 C   0  0  0  0  0  0  0  0  0  0  0  0
   -2.7016    0.0915    5.2053 C   0  0  0  0  0  0  0  0  0  0  0  0
   -2.8384    0.2554    3.8250 C   0  0  0  0  0  0  0  0  0  0  0  0
   -4.0434    0.7213    3.2899 C   0  0  0  0  0  0  0  0  0  0  0  0
   -8.5374    2.7336    4.0648 C   0  0  0  0  0  0  0  0  0  1  0  0
   -9.4162    2.0718    3.0839 C   0  0  0  0  0  0  0  0  0  2  0  0
   -9.2978    2.3634    1.7166 C   0  0  0  0  0  0  0  0  0  0  0  0
  -10.1548    1.7562    0.7932 C   0  0  0  0  0  0  0  0  0  0  0  0
  -11.1394    0.8658    1.2318 C   0  0  0  0  0  0  0  0  0  0  0  0
  -11.2709    0.5844    2.5950 C   0  0  0  0  0  0  0  0  0  0  0  0
  -10.4151    1.1894    3.5209 C   0  0  0  0  0  0  0  0  0  0  0  0
   -8.9324    3.7102    4.9623 C   0  0  0  0  0  0  0  0  0  0  0  0
  -10.2966    4.3204    5.0816 C   0  0  0  0  0  0  0  0  0  0  0  0
  1  3  4  0
  1 14  4  0
  1  2  1  0
  3  4  4  0
  4  5  4  0
  5  6  4  0
  5 22  1  0
  6  7  1  0
  6 14  4  0
  7  8  1  0
  8  9  4  0
  8 12  4  0
  9 10  4  0
 10 11  4  0
 11 12  4  0
 12 13  1  0
 13 14  1  0
 13 15  1  6
 15 16  4  0
 15 20  4  0
 16 17  4  0
 17 18  4  0
 17 21  1  0
 18 19  4  0
 19 20  4  0
 23 24  4  0
 24 25  1  0
 25 26  2  0
 25 27  1  0
 27 28  4  0
 28 29  4  0
 29 30  4  0
 30 31  4  0
 31 32  4  0
 24 33  4  0
 33 34  1  0
 34 35  4  0
 35 36  4  0
 36 37  4  0
 37 38  4  0
 38 39  4  0
 33 40  4  0
 40 41  1  0
 32 27  4  0
 39 34  4  0
  2 23  4  0
  2 40  4  0
M  END
$$$$

     RDKit          3D

 41 47  0  0  0  0  0  0  0  0999 V2000
   -7.6410    4.9930    6.8080 C   0  0  0  0  0  0  0  0  0  1  0  0
   -7.7310    4.0530    5.7140 C   0  0  0  0  0  0  0  0  0  2  0  0
   -6.4520    5.6300    6.8680 N   0  0  0  0  0  0  0  0  0  0  0  0
   -6.2260    6.5240    7.8670 N   0  0  0  0  0  0  0  0  0  0  0  0
   -7.1930    6.7500    8.7820 C   0  0  0  0  0  0  0  0  0  0  0  0
   -8.4240    6.1170    8.7580 C   0  0  0  0  0  0  0  0  0  0  0  0
   -9.3950    6.3570    9.7450 N   0  0  0  0  0  0  0  0  0  0  0  0
  -10.5620    5.6840    9.7600 C   0  0  0  0  0  0  0  0  0  0  0  0
  -11.5770    5.6820   10.5960 N   0  0  0  0  0  0  0  0  0  0  0  0
  -12.4690    4.7490   10.1080 N   0  0  0  0  0  0  0  0  0  0  0  0
  -12.0160    4.1880    8.9920 N   0  0  0  0  0  0  0  0  0  0  0  0
  -10.8400    4.7900    8.7610 N   0  0  0  0  0  0  0  0  0  0  0  0
   -9.9950    4.4790    7.6090 C   0  0  0  0  0  0  0  0  0  0  0  0
   -8.6630    5.2070    7.7200 C   0  0  0  0  0  0  0  0  0  0  0  0
  -10.7490    4.8610    6.3730 C   0  0  0  0  0  0  0  0  0  0  0  0
  -11.0350    6.2020    6.1170 C   0  0  0  0  0  0  0  0  0  0  0  0
  -11.7370    6.5580    4.9650 C   0  0  0  0  0  0  0  0  0  0  0  0
  -12.1550    5.5730    4.0710 C   0  0  0  0  0  0  0  0  0  0  0  0
  -11.8700    4.2310    4.3270 C   0  0  0  0  0  0  0  0  0  0  0  0
  -11.1660    3.8760    5.4790 C   0  0  0  0  0  0  0  0  0  0  0  0
  -12.0160    7.8660    4.7150 O   0  0  0  0  0  0  0  0  0  0  0  0
   -6.8990    7.6510    9.7710 O   0  0  0  0  0  0  0  0  0  0  0  0
   -6.7650    3.2522    5.2282 N   0  0  0  0  0  0  0  0  0  0  0  0
   -7.2183    2.4753    4.2556 N   0  0  0  0  0  0  0  0  0  0  0  0
   -6.3908    1.5089    3.5732 C   0  0  0  0  0  0  0  0  0  0  0  0
   -6.8434    0.8647    2.5891 O   0  0  0  0  0  0  0  0  0  0  0  0
   -4.9944    1.2599    3.9976 C   0  0  0  0  0  0  0  0  0  0  0  0
   -3.9865    1.1020    3.0303 C   0  0  0  0  0  0  0  0  0  0  0  0
   -2.6633    0.8682    3.4188 C   0  0  0  0  0  0  0  0  0  0  0  0
   -2.3365    0.7728    4.7757 C   0  0  0  0  0  0  0  0  0  0  0  0
   -3.3349    0.9044    5.7445 C   0  0  0  0  0  0  0  0  0  0  0  0
   -4.6604    1.1441    5.3587 C   0  0  0  0  0  0  0  0  0  0  0  0
   -8.5346    2.7369    4.0607 C   0  0  0  0  0  0  0  0  0  1  0  0
   -9.4023    2.1258    3.0349 C   0  0  0  0  0  0  0  0  0  2  0  0
  -10.5243    1.3731    3.4204 C   0  0  0  0  0  0  0  0  0  0  0  0
  -11.3685    0.8212    2.4507 C   0  0  0  0  0  0  0  0  0  0  0  0
  -11.1028    1.0264    1.0940 C   0  0  0  0  0  0  0  0  0  0  0  0
   -9.9964    1.7906    0.7043 C   0  0  0  0  0  0  0  0  0  0  0  0
   -9.1514    2.3458    1.6711 C   0  0  0  0  0  0  0  0  0  0  0  0
   -8.9299    3.7148    4.9590 C   0  0  0  0  0  0  0  0  0  0  0  0
  -10.2849    4.3488    5.0627 C   0  0  0  0  0  0  0  0  0  0  0  0
  1  3  4  0
  1 14  4  0
  1  2  1  0
  3  4  4  0
  4  5  4  0
  5  6  4  0
  5 22  1  0
  6  7  1  0
  6 14  4  0
  7  8  1  0
  8  9  4  0
  8 12  4  0
  9 10  4  0
 10 11  4  0
 11 12  4  0
 12 13  1  0
 13 14  1  0
 13 15  1  6
 15 16  4  0
 15 20  4  0
 16 17  4  0
 17 18  4  0
 17 21  1  0
 18 19  4  0
 19 20  4  0
 23 24  4  0
 24 25  1  0
 25 26  2  0
 25 27  1  0
 27 28  4  0
 28 29  4  0
 29 30  4  0
 30 31  4  0
 31 32  4  0
 24 33  4  0
 33 34  1  0
 34 35  4  0
 35 36  4  0
 36 37  4  0
 37 38  4  0
 38 39  4  0
 33 40  4  0
 40 41  1  0
 32 27  4  0
 39 34  4  0
  2 23  4  0
  2 40  4  0
M  END
$$$$

     RDKit          3D

 48 55  0  0  0  0  0  0  0  0999 V2000
   -7.6410    4.9930    6.8080 C   0  0  0  0  0  0  0  0  0  1  0  0
   -7.7310    4.0530    5.7140 C   0  0  0  0  0  0  0  0  0  2  0  0
   -6.4520    5.6300    6.8680 N   0  0  0  0  0  0  0  0  0  0  0  0
   -6.2260    6.5240    7.8670 N   0  0  0  0  0  0  0  0  0  0  0  0
   -7.1930    6.7500    8.7820 C   0  0  0  0  0  0  0  0  0  0  0  0
   -8.4240    6.1170    8.7580 C   0  0  0  0  0  0  0  0  0  0  0  0
   -9.3950    6.3570    9.7450 N   0  0  0  0  0  0  0  0  0  0  0  0
  -10.5620    5.6840    9.7600 C   0  0  0  0  0  0  0  0  0  0  0  0
  -11.5770    5.6820   10.5960 N   0  0  0  0  0  0  0  0  0  0  0  0
  -12.4690    4.7490   10.1080 N   0  0  0  0  0  0  0  0  0  0  0  0
  -12.0160    4.1880    8.9920 N   0  0  0  0  0  0  0  0  0  0  0  0
  -10.8400    4.7900    8.7610 N   0  0  0  0  0  0  0  0  0  0  0  0
   -9.9950    4.4790    7.6090 C   0  0  0  0  0  0  0  0  0  0  0  0
   -8.6630    5.2070    7.7200 C   0  0  0  0  0  0  0  0  0  0  0  0
  -10.7490    4.8610    6.3730 C   0  0  0  0  0  0  0  0  0  0  0  0
  -11.0350    6.2020    6.1170 C   0  0  0  0  0  0  0  0  0  0  0  0
  -11.7370    6.5580    4.9650 C   0  0  0  0  0  0  0  0  0  0  0  0
  -12.1550    5.5730    4.0710 C   0  0  0  0  0  0  0  0  0  0  0  0
  -11.8700    4.2310    4.3270 C   0  0  0  0  0  0  0  0  0  0  0  0
  -11.1660    3.8760    5.4790 C   0  0  0  0  0  0  0  0  0  0  0  0
  -12.0160    7.8660    4.7150 O   0  0  0  0  0  0  0  0  0  0  0  0
   -6.8990    7.6510    9.7710 O   0  0  0  0  0  0  0  0  0  0  0  0
   -6.7975    3.1866    5.2703 N   0  0  0  0  0  0  0  0  0  0  0  0
   -7.2985    2.4245    4.3055 N   0  0  0  0  0  0  0  0  0  0  0  0
   -8.5831    2.7900    4.1408 C   0  0  0  0  0  0  0  0  0  0  0  0
   -9.6895    2.0398    2.9423 S   0  0  0  0  0  0  0  0  0  0  0  0
   -9.3545    3.2544    1.6161 C   0  0  0  0  0  0  0  0  0  0  0  0
   -8.0553    2.9076    0.8884 C   0  0  0  0  0  0  0  0  0  0  0  0
  -10.5112    3.2301    0.6466 C   0  0  0  0  0  0  0  0  0  0  0  0
  -10.7409    2.1648    0.0090 O   0  0  0  0  0  0  0  0  0  0  0  0
  -11.3612    4.3760    0.4368 N   0  0  0  0  0  0  0  0  0  0  0  0
  -11.2113    5.6565    1.1134 C   0  0  0  0  0  0  0  0  0  0  0  0
  -12.3683    6.5226    0.6302 C   0  0  0  0  0  0  0  0  0  0  0  0
  -12.9284    5.8307   -0.6128 C   0  0  0  0  0  0  0  0  0  0  0  0
  -12.4303    4.3847   -0.5552 C   0  0  0  0  0  0  0  0  0  0  0  0
  -13.5301    3.4105   -0.1756 C   0  0  0  0  0  0  0  0  0  0  0  0
  -14.1604    3.4804    1.0779 C   0  0  0  0  0  0  0  0  0  0  0  0
  -15.1851    2.5889    1.4038 C   0  0  0  0  0  0  0  0  0  0  0  0
  -15.6014    1.6210    0.4849 C   0  0  0  0  0  0  0  0  0  0  0  0
  -14.9112    1.4837   -0.7390 C   0  0  0  0  0  0  0  0  0  0  0  0
  -13.9072    2.3991   -1.0728 C   0  0  0  0  0  0  0  0  0  0  0  0
  -15.1771    0.4435   -1.6381 O   0  0  0  0  0  0  0  0  0  0  0  0
  -15.9067   -0.7358   -1.3059 C   0  0  0  0  0  0  0  0  0  0  0  0
  -17.4040   -0.4508   -1.2061 C   0  0  0  0  0  0  0  0  0  0  0  0
  -17.7659    0.6060   -0.1508 C   0  0  0  0  0  0  0  0  0  0  0  0
  -16.7198    0.8393    0.7934 O   0  0  0  0  0  0  0  0  0  0  0  0
   -8.9194    3.7725    4.9926 N   0  0  0  0  0  0  0  0  0  0  0  0
  -10.1204    4.5013    5.0097 N   0  0  0  0  0  0  0  0  0  0  0  0
  1  3  4  0
  1 14  4  0
  1  2  1  0
  3  4  4  0
  4  5  4  0
  5  6  4  0
  5 22  1  0
  6  7  1  0
  6 14  4  0
  7  8  1  0
  8  9  4  0
  8 12  4  0
  9 10  4  0
 10 11  4  0
 11 12  4  0
 12 13  1  0
 13 14  1  0
 13 15  1  6
 15 16  4  0
 15 20  4  0
 16 17  4  0
 17 18  4  0
 17 21  1  0
 18 19  4  0
 19 20  4  0
 23 24  4  0
 24 25  4  0
 25 26  1  0
 26 27  1  0
 27 28  1  0
 27 29  1  0
 29 30  2  0
 29 31  1  0
 31 32  1  0
 32 33  1  0
 33 34  1  0
 34 35  1  0
 35 36  1  0
 36 37  4  0
 37 38  4  0
 38 39  4  0
 39 40  4  0
 40 41  4  0
 40 42  1  0
 42 43  1  0
 43 44  1  0
 44 45  1  0
 45 46  1  0
 25 47  4  0
 47 48  1  0
 35 31  1  0
 41 36  4  0
 46 39  1  0
  2 23  4  0
  2 47  4  0
M  END
$$$$

     RDKit          3D

 48 55  0  0  0  0  0  0  0  0999 V2000
   -7.6410    4.9930    6.8080 C   0  0  0  0  0  0  0  0  0  1  0  0
   -7.7310    4.0530    5.7140 C   0  0  0  0  0  0  0  0  0  2  0  0
   -6.4520    5.6300    6.8680 N   0  0  0  0  0  0  0  0  0  0  0  0
   -6.2260    6.5240    7.8670 N   0  0  0  0  0  0  0  0  0  0  0  0
   -7.1930    6.7500    8.7820 C   0  0  0  0  0  0  0  0  0  0  0  0
   -8.4240    6.1170    8.7580 C   0  0  0  0  0  0  0  0  0  0  0  0
   -9.3950    6.3570    9.7450 N   0  0  0  0  0  0  0  0  0  0  0  0
  -10.5620    5.6840    9.7600 C   0  0  0  0  0  0  0  0  0  0  0  0
  -11.5770    5.6820   10.5960 N   0  0  0  0  0  0  0  0  0  0  0  0
  -12.4690    4.7490   10.1080 N   0  0  0  0  0  0  0  0  0  0  0  0
  -12.0160    4.1880    8.9920 N   0  0  0  0  0  0  0  0  0  0  0  0
  -10.8400    4.7900    8.7610 N   0  0  0  0  0  0  0  0  0  0  0  0
   -9.9950    4.4790    7.6090 C   0  0  0  0  0  0  0  0  0  0  0  0
   -8.6630    5.2070    7.7200 C   0  0  0  0  0  0  0  0  0  0  0  0
  -10.7490    4.8610    6.3730 C   0  0  0  0  0  0  0  0  0  0  0  0
  -11.0350    6.2020    6.1170 C   0  0  0  0  0  0  0  0  0  0  0  0
  -11.7370    6.5580    4.9650 C   0  0  0  0  0  0  0  0  0  0  0  0
  -12.1550    5.5730    4.0710 C   0  0  0  0  0  0  0  0  0  0  0  0
  -11.8700    4.2310    4.3270 C   0  0  0  0  0  0  0  0  0  0  0  0
  -11.1660    3.8760    5.4790 C   0  0  0  0  0  0  0  0  0  0  0  0
  -12.0160    7.8660    4.7150 O   0  0  0  0  0  0  0  0  0  0  0  0
   -6.8990    7.6510    9.7710 O   0  0  0  0  0  0  0  0  0  0  0  0
   -6.7918    3.1931    5.2672 N   0  0  0  0  0  0  0  0  0  0  0  0
   -7.2714    2.4728    4.2614 N   0  0  0  0  0  0  0  0  0  0  0  0
   -8.5472    2.8581    4.0752 C   0  0  0  0  0  0  0  0  0  0  0  0
   -9.5849    2.2347    2.7498 S   0  0  0  0  0  0  0  0  0  0  0  0
  -10.2207    0.8048    3.6977 C   0  0  0  0  0  0  0  0  0  0  0  0
  -10.5115   -0.3732    2.7674 C   0  0  0  0  0  0  0  0  0  0  0  0
  -11.4381    1.1723    4.5100 C   0  0  0  0  0  0  0  0  0  0  0  0
  -11.3604    1.1100    5.7674 O   0  0  0  0  0  0  0  0  0  0  0  0
  -12.7029    1.5058    3.9028 N   0  0  0  0  0  0  0  0  0  0  0  0
  -12.8621    2.3205    2.7070 C   0  0  0  0  0  0  0  0  0  0  0  0
  -14.3612    2.4059    2.4550 C   0  0  0  0  0  0  0  0  0  0  0  0
  -15.0330    1.9741    3.7550 C   0  0  0  0  0  0  0  0  0  0  0  0
  -13.9757    1.1908    4.5378 C   0  0  0  0  0  0  0  0  0  0  0  0
  -14.2329   -0.3021    4.4931 C   0  0  0  0  0  0  0  0  0  0  0  0
  -14.5738   -0.9954    5.6654 C   0  0  0  0  0  0  0  0  0  0  0  0
  -14.8414   -2.3659    5.6244 C   0  0  0  0  0  0  0  0  0  0  0  0
  -14.7768   -3.0648    4.4158 C   0  0  0  0  0  0  0  0  0  0  0  0
  -14.3576   -2.3953    3.2463 C   0  0  0  0  0  0  0  0  0  0  0  0
  -14.1295   -1.0150    3.2853 C   0  0  0  0  0  0  0  0  0  0  0  0
  -14.1247   -3.0741    2.0429 O   0  0  0  0  0  0  0  0  0  0  0  0
  -13.7059   -4.4380    1.9872 C   0  0  0  0  0  0  0  0  0  0  0  0
  -14.8717   -5.4097    2.1764 C   0  0  0  0  0  0  0  0  0  0  0  0
  -15.8435   -4.9973    3.2851 C   0  0  0  0  0  0  0  0  0  0  0  0
  -15.1744   -4.4074    4.3973 O   0  0  0  0  0  0  0  0  0  0  0  0
   -8.8999    3.8114    4.9559 N   0  0  0  0  0  0  0  0  0  0  0  0
  -10.0796    4.5737    4.9473 N   0  0  0  0  0  0  0  0  0  0  0  0
  1  3  4  0
  1 14  4  0
  1  2  1  0
  3  4  4  0
  4  5  4  0
  5  6  4  0
  5 22  1  0
  6  7  1  0
  6 14  4  0
  7  8  1  0
  8  9  4  0
  8 12  4  0
  9 10  4  0
 10 11  4  0
 11 12  4  0
 12 13  1  0
 13 14  1  0
 13 15  1  6
 15 16  4  0
 15 20  4  0
 16 17  4  0
 17 18  4  0
 17 21  1  0
 18 19  4  0
 19 20  4  0
 23 24  4  0
 24 25  4  0
 25 26  1  0
 26 27  1  0
 27 28  1  0
 27 29  1  0
 29 30  2  0
 29 31  1  0
 31 32  1  0
 32 33  1  0
 33 34  1  0
 34 35  1  0
 35 36  1  0
 36 37  4  0
 37 38  4  0
 38 39  4  0
 39 40  4  0
 40 41  4  0
 40 42  1  0
 42 43  1  0
 43 44  1  0
 44 45  1  0
 45 46  1  0
 25 47  4  0
 47 48  1  0
 35 31  1  0
 41 36  4  0
 46 39  1  0
  2 23  4  0
  2 47  4  0
M  END
$$$$

     RDKit          3D

 48 55  0  0  0  0  0  0  0  0999 V2000
   -7.6410    4.9930    6.8080 C   0  0  0  0  0  0  0  0  0  1  0  0
   -7.7310    4.0530    5.7140 C   0  0  0  0  0  0  0  0  0  2  0  0
   -6.4520    5.6300    6.8680 N   0  0  0  0  0  0  0  0  0  0  0  0
   -6.2260    6.5240    7.8670 N   0  0  0  0  0  0  0  0  0  0  0  0
   -7.1930    6.7500    8.7820 C   0  0  0  0  0  0  0  0  0  0  0  0
   -8.4240    6.1170    8.7580 C   0  0  0  0  0  0  0  0  0  0  0  0
   -9.3950    6.3570    9.7450 N   0  0  0  0  0  0  0  0  0  0  0  0
  -10.5620    5.6840    9.7600 C   0  0  0  0  0  0  0  0  0  0  0  0
  -11.5770    5.6820   10.5960 N   0  0  0  0  0  0  0  0  0  0  0  0
  -12.4690    4.7490   10.1080 N   0  0  0  0  0  0  0  0  0  0  0  0
  -12.0160    4.1880    8.9920 N   0  0  0  0  0  0  0  0  0  0  0  0
  -10.8400    4.7900    8.7610 N   0  0  0  0  0  0  0  0  0  0  0  0
   -9.9950    4.4790    7.6090 C   0  0  0  0  0  0  0  0  0  0  0  0
   -8.6630    5.2070    7.7200 C   0  0  0  0  0  0  0  0  0  0  0  0
  -10.7490    4.8610    6.3730 C   0  0  0  0  0  0  0  0  0  0  0  0
  -11.0350    6.2020    6.1170 C   0  0  0  0  0  0  0  0  0  0  0  0
  -11.7370    6.5580    4.9650 C   0  0  0  0  0  0  0  0  0  0  0  0
  -12.1550    5.5730    4.0710 C   0  0  0  0  0  0  0  0  0  0  0  0
  -11.8700    4.2310    4.3270 C   0  0  0  0  0  0  0  0  0  0  0  0
  -11.1660    3.8760    5.4790 C   0  0  0  0  0  0  0  0  0  0  0  0
  -12.0160    7.8660    4.7150 O   0  0  0  0  0  0  0  0  0  0  0  0
   -6.8990    7.6510    9.7710 O   0  0  0  0  0  0  0  0  0  0  0  0
   -6.7841    3.2092    5.2524 N   0  0  0  0  0  0  0  0  0  0  0  0
   -7.2793    2.4385    4.2917 N   0  0  0  0  0  0  0  0  0  0  0  0
   -8.5759    2.7747    4.1504 C   0  0  0  0  0  0  0  0  0  0  0  0
   -9.6959    1.9915    2.9832 S   0  0  0  0  0  0  0  0  0  0  0  0
  -10.0664    0.5521    4.0580 C   0  0  0  0  0  0  0  0  0  0  0  0
  -10.8868    0.9841    5.2840 C   0  0  0  0  0  0  0  0  0  0  0  0
  -10.7843   -0.5112    3.2528 C   0  0  0  0  0  0  0  0  0  0  0  0
  -12.0033   -0.7493    3.4753 O   0  0  0  0  0  0  0  0  0  0  0  0
  -10.0834   -1.3163    2.2776 N   0  0  0  0  0  0  0  0  0  0  0  0
   -8.7362   -1.0453    1.7992 C   0  0  0  0  0  0  0  0  0  0  0  0
   -8.4126   -2.1521    0.8013 C   0  0  0  0  0  0  0  0  0  0  0  0
   -9.4683   -3.2369    1.0024 C   0  0  0  0  0  0  0  0  0  0  0  0
  -10.6102   -2.5849    1.7887 C   0  0  0  0  0  0  0  0  0  0  0  0
  -11.8482   -2.3644    0.9401 C   0  0  0  0  0  0  0  0  0  0  0  0
  -11.8110   -1.5278   -0.1898 C   0  0  0  0  0  0  0  0  0  0  0  0
  -12.9712   -1.2947   -0.9330 C   0  0  0  0  0  0  0  0  0  0  0  0
  -14.1886   -1.8649   -0.5452 C   0  0  0  0  0  0  0  0  0  0  0  0
  -14.2216   -2.7643    0.5447 C   0  0  0  0  0  0  0  0  0  0  0  0
  -13.0609   -2.9817    1.2945 C   0  0  0  0  0  0  0  0  0  0  0  0
  -15.3811   -3.4694    0.8916 O   0  0  0  0  0  0  0  0  0  0  0  0
  -16.3574   -3.8736   -0.0670 C   0  0  0  0  0  0  0  0  0  0  0  0
  -17.3102   -2.7339   -0.4375 C   0  0  0  0  0  0  0  0  0  0  0  0
  -16.6169   -1.3760   -0.5683 C   0  0  0  0  0  0  0  0  0  0  0  0
  -15.3544   -1.4828   -1.2225 O   0  0  0  0  0  0  0  0  0  0  0  0
   -8.9199    3.7542    5.0025 N   0  0  0  0  0  0  0  0  0  0  0  0
  -10.1479    4.4351    5.0475 N   0  0  0  0  0  0  0  0  0  0  0  0
  1  3  4  0
  1 14  4  0
  1  2  1  0
  3  4  4  0
  4  5  4  0
  5  6  4  0
  5 22  1  0
  6  7  1  0
  6 14  4  0
  7  8  1  0
  8  9  4  0
  8 12  4  0
  9 10  4  0
 10 11  4  0
 11 12  4  0
 12 13  1  0
 13 14  1  0
 13 15  1  6
 15 16  4  0
 15 20  4  0
 16 17  4  0
 17 18  4  0
 17 21  1  0
 18 19  4  0
 19 20  4  0
 23 24  4  0
 24 25  4  0
 25 26  1  0
 26 27  1  0
 27 28  1  0
 27 29  1  0
 29 30  2  0
 29 31  1  0
 31 32  1  0
 32 33  1  0
 33 34  1  0
 34 35  1  0
 35 36  1  0
 36 37  4  0
 37 38  4  0
 38 39  4  0
 39 40  4  0
 40 41  4  0
 40 42  1  0
 42 43  1  0
 43 44  1  0
 44 45  1  0
 45 46  1  0
 25 47  4  0
 47 48  1  0
 35 31  1  0
 41 36  4  0
 46 39  1  0
  2 23  4  0
  2 47  4  0
M  END
$$$$

     RDKit          3D

 48 55  0  0  0  0  0  0  0  0999 V2000
   -7.6410    4.9930    6.8080 C   0  0  0  0  0  0  0  0  0  1  0  0
   -7.7310    4.0530    5.7140 C   0  0  0  0  0  0  0  0  0  2  0  0
   -6.4520    5.6300    6.8680 N   0  0  0  0  0  0  0  0  0  0  0  0
   -6.2260    6.5240    7.8670 N   0  0  0  0  0  0  0  0  0  0  0  0
   -7.1930    6.7500    8.7820 C   0  0  0  0  0  0  0  0  0  0  0  0
   -8.4240    6.1170    8.7580 C   0  0  0  0  0  0  0  0  0  0  0  0
   -9.3950    6.3570    9.7450 N   0  0  0  0  0  0  0  0  0  0  0  0
  -10.5620    5.6840    9.7600 C   0  0  0  0  0  0  0  0  0  0  0  0
  -11.5770    5.6820   10.5960 N   0  0  0  0  0  0  0  0  0  0  0  0
  -12.4690    4.7490   10.1080 N   0  0  0  0  0  0  0  0  0  0  0  0
  -12.0160    4.1880    8.9920 N   0  0  0  0  0  0  0  0  0  0  0  0
  -10.8400    4.7900    8.7610 N   0  0  0  0  0  0  0  0  0  0  0  0
   -9.9950    4.4790    7.6090 C   0  0  0  0  0  0  0  0  0  0  0  0
   -8.6630    5.2070    7.7200 C   0  0  0  0  0  0  0  0  0  0  0  0
  -10.7490    4.8610    6.3730 C   0  0  0  0  0  0  0  0  0  0  0  0
  -11.0350    6.2020    6.1170 C   0  0  0  0  0  0  0  0  0  0  0  0
  -11.7370    6.5580    4.9650 C   0  0  0  0  0  0  0  0  0  0  0  0
  -12.1550    5.5730    4.0710 C   0  0  0  0  0  0  0  0  0  0  0  0
  -11.8700    4.2310    4.3270 C   0  0  0  0  0  0  0  0  0  0  0  0
  -11.1660    3.8760    5.4790 C   0  0  0  0  0  0  0  0  0  0  0  0
  -12.0160    7.8660    4.7150 O   0  0  0  0  0  0  0  0  0  0  0  0
   -6.8990    7.6510    9.7710 O   0  0  0  0  0  0  0  0  0  0  0  0
   -6.7979    3.1708    5.2910 N   0  0  0  0  0  0  0  0  0  0  0  0
   -7.3087    2.3625    4.3718 N   0  0  0  0  0  0  0  0  0  0  0  0
   -8.6053    2.7118    4.2192 C   0  0  0  0  0  0  0  0  0  0  0  0
   -9.7604    1.8275    3.1693 S   0  0  0  0  0  0  0  0  0  0  0  0
  -10.1483    0.5380    4.4234 C   0  0  0  0  0  0  0  0  0  0  0  0
  -10.9465    1.1253    5.5950 C   0  0  0  0  0  0  0  0  0  0  0  0
  -10.9300   -0.6049    3.8165 C   0  0  0  0  0  0  0  0  0  0  0  0
  -11.6398   -0.4049    2.7906 O   0  0  0  0  0  0  0  0  0  0  0  0
  -10.9442   -1.9020    4.4424 N   0  0  0  0  0  0  0  0  0  0  0  0
   -9.9541   -2.3436    5.4145 C   0  0  0  0  0  0  0  0  0  0  0  0
  -10.4037   -3.7234    5.8693 C   0  0  0  0  0  0  0  0  0  0  0  0
  -11.8780   -3.8215    5.4914 C   0  0  0  0  0  0  0  0  0  0  0  0
  -12.0899   -2.8002    4.3681 C   0  0  0  0  0  0  0  0  0  0  0  0
  -12.1898   -3.4796    3.0147 C   0  0  0  0  0  0  0  0  0  0  0  0
  -11.0679   -4.0735    2.4078 C   0  0  0  0  0  0  0  0  0  0  0  0
  -11.2122   -4.8136    1.2310 C   0  0  0  0  0  0  0  0  0  0  0  0
  -12.4793   -5.0177    0.6729 C   0  0  0  0  0  0  0  0  0  0  0  0
  -13.5971   -4.3533    1.2216 C   0  0  0  0  0  0  0  0  0  0  0  0
  -13.4445   -3.6042    2.3941 C   0  0  0  0  0  0  0  0  0  0  0  0
  -14.8637   -4.3956    0.6235 O   0  0  0  0  0  0  0  0  0  0  0  0
  -15.0965   -4.7964   -0.7262 C   0  0  0  0  0  0  0  0  0  0  0  0
  -15.0027   -6.3110   -0.8839 C   0  0  0  0  0  0  0  0  0  0  0  0
  -13.6603   -6.8978   -0.4192 C   0  0  0  0  0  0  0  0  0  0  0  0
  -12.6071   -5.9330   -0.3813 O   0  0  0  0  0  0  0  0  0  0  0  0
   -8.9257    3.7392    5.0224 N   0  0  0  0  0  0  0  0  0  0  0  0
  -10.1533    4.4232    5.0836 N   0  0  0  0  0  0  0  0  0  0  0  0
  1  3  4  0
  1 14  4  0
  1  2  1  0
  3  4  4  0
  4  5  4  0
  5  6  4  0
  5 22  1  0
  6  7  1  0
  6 14  4  0
  7  8  1  0
  8  9  4  0
  8 12  4  0
  9 10  4  0
 10 11  4  0
 11 12  4  0
 12 13  1  0
 13 14  1  0
 13 15  1  6
 15 16  4  0
 15 20  4  0
 16 17  4  0
 17 18  4  0
 17 21  1  0
 18 19  4  0
 19 20  4  0
 23 24  4  0
 24 25  4  0
 25 26  1  0
 26 27  1  0
 27 28  1  0
 27 29  1  0
 29 30  2  0
 29 31  1  0
 31 32  1  0
 32 33  1  0
 33 34  1  0
 34 35  1  0
 35 36  1  0
 36 37  4  0
 37 38  4  0
 38 39  4  0
 39 40  4  0
 40 41  4  0
 40 42  1  0
 42 43  1  0
 43 44  1  0
 44 45  1  0
 45 46  1  0
 25 47  4  0
 47 48  1  0
 35 31  1  0
 41 36  4  0
 46 39  1  0
  2 23  4  0
  2 47  4  0
M  END
$$$$

     RDKit          3D

 41 46  0  0  0  0  0  0  0  0999 V2000
   -7.6410    4.9930    6.8080 C   0  0  0  0  0  0  0  0  0  1  0  0
   -7.7310    4.0530    5.7140 C   0  0  0  0  0  0  0  0  0  2  0  0
   -6.4520    5.6300    6.8680 N   0  0  0  0  0  0  0  0  0  0  0  0
   -6.2260    6.5240    7.8670 N   0  0  0  0  0  0  0  0  0  0  0  0
   -7.1930    6.7500    8.7820 C   0  0  0  0  0  0  0  0  0  0  0  0
   -8.4240    6.1170    8.7580 C   0  0  0  0  0  0  0  0  0  0  0  0
   -9.3950    6.3570    9.7450 N   0  0  0  0  0  0  0  0  0  0  0  0
  -10.5620    5.6840    9.7600 C   0  0  0  0  0  0  0  0  0  0  0  0
  -11.5770    5.6820   10.5960 N   0  0  0  0  0  0  0  0  0  0  0  0
  -12.4690    4.7490   10.1080 N   0  0  0  0  0  0  0  0  0  0  0  0
  -12.0160    4.1880    8.9920 N   0  0  0  0  0  0  0  0  0  0  0  0
  -10.8400    4.7900    8.7610 N   0  0  0  0  0  0  0  0  0  0  0  0
   -9.9950    4.4790    7.6090 C   0  0  0  0  0  0  0  0  0  0  0  0
   -8.6630    5.2070    7.7200 C   0  0  0  0  0  0  0  0  0  0  0  0
  -10.7490    4.8610    6.3730 C   0  0  0  0  0  0  0  0  0  0  0  0
  -11.0350    6.2020    6.1170 C   0  0  0  0  0  0  0  0  0  0  0  0
  -11.7370    6.5580    4.9650 C   0  0  0  0  0  0  0  0  0  0  0  0
  -12.1550    5.5730    4.0710 C   0  0  0  0  0  0  0  0  0  0  0  0
  -11.8700    4.2310    4.3270 C   0  0  0  0  0  0  0  0  0  0  0  0
  -11.1660    3.8760    5.4790 C   0  0  0  0  0  0  0  0  0  0  0  0
  -12.0160    7.8660    4.7150 O   0  0  0  0  0  0  0  0  0  0  0  0
   -6.8990    7.6510    9.7710 O   0  0  0  0  0  0  0  0  0  0  0  0
   -6.8432    3.0923    5.3810 N   0  0  0  0  0  0  0  0  0  0  0  0
   -7.2945    2.4013    4.3448 N   0  0  0  0  0  0  0  0  0  0  0  0
   -8.5013    2.9061    4.0343 C   0  0  0  0  0  0  0  0  0  0  0  0
   -9.4660    2.3539    2.6109 S   0  0  0  0  0  0  0  0  0  0  0  0
   -8.8500    3.9144    4.8603 N   0  0  0  0  0  0  0  0  0  0  0  0
   -9.9616    4.8527    4.6749 C   0  0  0  0  0  0  0  0  0  0  0  0
   -9.6154    5.8515    3.6105 C   0  0  0  0  0  0  0  0  0  0  0  0
   -8.6876    6.6802    3.8205 O   0  0  0  0  0  0  0  0  0  0  0  0
  -10.3153    5.8460    2.3565 N   0  0  0  0  0  0  0  0  0  0  0  0
   -9.9330    6.7233    1.2421 C   0  0  0  0  0  0  0  0  0  0  0  0
  -10.4240    8.1528    1.4949 C   0  0  0  0  0  0  0  0  0  0  0  0
  -10.4818    6.1883   -0.0679 C   0  0  0  0  0  0  0  0  0  0  0  0
   -9.6056    5.8167   -1.1045 C   0  0  0  0  0  0  0  0  0  0  0  0
  -10.1073    5.3144   -2.3093 C   0  0  0  0  0  0  0  0  0  0  0  0
  -11.4870    5.1724   -2.4922 C   0  0  0  0  0  0  0  0  0  0  0  0
  -12.1273    4.5171   -4.0357 S   0  0  0  0  0  0  0  0  0  0  0  0
  -12.0863    2.7907   -3.4585 C   0  0  0  0  0  0  0  0  0  0  0  0
  -12.3657    5.5359   -1.4675 C   0  0  0  0  0  0  0  0  0  0  0  0
  -11.8684    6.0422   -0.2633 C   0  0  0  0  0  0  0  0  0  0  0  0
  1  3  4  0
  1 14  4  0
  1  2  1  0
  3  4  4  0
  4  5  4  0
  5  6  4  0
  5 22  1  0
  6  7  1  0
  6 14  4  0
  7  8  1  0
  8  9  4  0
  8 12  4  0
  9 10  4  0
 10 11  4  0
 11 12  4  0
 12 13  1  0
 13 14  1  0
 13 15  1  6
 15 16  4  0
 15 20  4  0
 16 17  4  0
 17 18  4  0
 17 21  1  0
 18 19  4  0
 19 20  4  0
 23 24  4  0
 24 25  4  0
 25 26  1  0
 25 27  4  0
 27 28  1  0
 28 29  1  0
 29 30  2  0
 29 31  1  0
 31 32  1  0
 32 33  1  0
 32 34  1  0
 34 35  4  0
 35 36  4  0
 36 37  4  0
 37 38  1  0
 38 39  1  0
 37 40  4  0
 40 41  4  0
 41 34  4  0
  2 23  4  0
  2 27  4  0
M  CHG  1  26  -1
M  END
$$$$

     RDKit          3D

 41 46  0  0  0  0  0  0  0  0999 V2000
   -7.6410    4.9930    6.8080 C   0  0  0  0  0  0  0  0  0  1  0  0
   -7.7310    4.0530    5.7140 C   0  0  0  0  0  0  0  0  0  2  0  0
   -6.4520    5.6300    6.8680 N   0  0  0  0  0  0  0  0  0  0  0  0
   -6.2260    6.5240    7.8670 N   0  0  0  0  0  0  0  0  0  0  0  0
   -7.1930    6.7500    8.7820 C   0  0  0  0  0  0  0  0  0  0  0  0
   -8.4240    6.1170    8.7580 C   0  0  0  0  0  0  0  0  0  0  0  0
   -9.3950    6.3570    9.7450 N   0  0  0  0  0  0  0  0  0  0  0  0
  -10.5620    5.6840    9.7600 C   0  0  0  0  0  0  0  0  0  0  0  0
  -11.5770    5.6820   10.5960 N   0  0  0  0  0  0  0  0  0  0  0  0
  -12.4690    4.7490   10.1080 N   0  0  0  0  0  0  0  0  0  0  0  0
  -12.0160    4.1880    8.9920 N   0  0  0  0  0  0  0  0  0  0  0  0
  -10.8400    4.7900    8.7610 N   0  0  0  0  0  0  0  0  0  0  0  0
   -9.9950    4.4790    7.6090 C   0  0  0  0  0  0  0  0  0  0  0  0
   -8.6630    5.2070    7.7200 C   0  0  0  0  0  0  0  0  0  0  0  0
  -10.7490    4.8610    6.3730 C   0  0  0  0  0  0  0  0  0  0  0  0
  -11.0350    6.2020    6.1170 C   0  0  0  0  0  0  0  0  0  0  0  0
  -11.7370    6.5580    4.9650 C   0  0  0  0  0  0  0  0  0  0  0  0
  -12.1550    5.5730    4.0710 C   0  0  0  0  0  0  0  0  0  0  0  0
  -11.8700    4.2310    4.3270 C   0  0  0  0  0  0  0  0  0  0  0  0
  -11.1660    3.8760    5.4790 C   0  0  0  0  0  0  0  0  0  0  0  0
  -12.0160    7.8660    4.7150 O   0  0  0  0  0  0  0  0  0  0  0  0
   -6.8990    7.6510    9.7710 O   0  0  0  0  0  0  0  0  0  0  0  0
   -6.8569    3.0709    5.4044 N   0  0  0  0  0  0  0  0  0  0  0  0
   -7.2962    2.3936    4.3541 N   0  0  0  0  0  0  0  0  0  0  0  0
   -8.4805    2.9308    4.0110 C   0  0  0  0  0  0  0  0  0  0  0  0
   -9.4364    2.3852    2.5819 S   0  0  0  0  0  0  0  0  0  0  0  0
   -8.8264    3.9455    4.8295 N   0  0  0  0  0  0  0  0  0  0  0  0
   -9.9298    4.8921    4.6370 C   0  0  0  0  0  0  0  0  0  0  0  0
   -9.5806    5.8779    3.5640 C   0  0  0  0  0  0  0  0  0  0  0  0
  -10.2190    5.8623    2.4770 O   0  0  0  0  0  0  0  0  0  0  0  0
   -8.5245    6.8284    3.7773 N   0  0  0  0  0  0  0  0  0  0  0  0
   -7.9869    7.7006    2.7284 C   0  0  0  0  0  0  0  0  0  0  0  0
   -7.2590    6.8618    1.6676 C   0  0  0  0  0  0  0  0  0  0  0  0
   -9.0728    8.6251    2.1975 C   0  0  0  0  0  0  0  0  0  0  0  0
   -9.6346    9.5672    3.0786 C   0  0  0  0  0  0  0  0  0  0  0  0
  -10.6417   10.4352    2.6486 C   0  0  0  0  0  0  0  0  0  0  0  0
  -11.1031   10.3763    1.3303 C   0  0  0  0  0  0  0  0  0  0  0  0
  -12.3993   11.4877    0.7804 S   0  0  0  0  0  0  0  0  0  0  0  0
  -11.2332   12.7759    0.2397 C   0  0  0  0  0  0  0  0  0  0  0  0
  -10.5583    9.4421    0.4445 C   0  0  0  0  0  0  0  0  0  0  0  0
   -9.5495    8.5726    0.8700 C   0  0  0  0  0  0  0  0  0  0  0  0
  1  3  4  0
  1 14  4  0
  1  2  1  0
  3  4  4  0
  4  5  4  0
  5  6  4  0
  5 22  1  0
  6  7  1  0
  6 14  4  0
  7  8  1  0
  8  9  4  0
  8 12  4  0
  9 10  4  0
 10 11  4  0
 11 12  4  0
 12 13  1  0
 13 14  1  0
 13 15  1  6
 15 16  4  0
 15 20  4  0
 16 17  4  0
 17 18  4  0
 17 21  1  0
 18 19  4  0
 19 20  4  0
 23 24  4  0
 24 25  4  0
 25 26  1  0
 25 27  4  0
 27 28  1  0
 28 29  1  0
 29 30  2  0
 29 31  1  0
 31 32  1  0
 32 33  1  0
 32 34  1  0
 34 35  4  0
 35 36  4  0
 36 37  4  0
 37 38  1  0
 38 39  1  0
 37 40  4  0
 40 41  4  0
 41 34  4  0
  2 23  4  0
  2 27  4  0
M  CHG  1  26  -1
M  END
$$$$

     RDKit          3D

 35 40  0  0  0  0  0  0  0  0999 V2000
   -7.6410    4.9930    6.8080 C   0  0  0  0  0  0  0  0  0  1  0  0
   -7.7310    4.0530    5.7140 C   0  0  0  0  0  0  0  0  0  2  0  0
   -6.4520    5.6300    6.8680 N   0  0  0  0  0  0  0  0  0  0  0  0
   -6.2260    6.5240    7.8670 N   0  0  0  0  0  0  0  0  0  0  0  0
   -7.1930    6.7500    8.7820 C   0  0  0  0  0  0  0  0  0  0  0  0
   -8.4240    6.1170    8.7580 C   0  0  0  0  0  0  0  0  0  0  0  0
   -9.3950    6.3570    9.7450 N   0  0  0  0  0  0  0  0  0  0  0  0
  -10.5620    5.6840    9.7600 C   0  0  0  0  0  0  0  0  0  0  0  0
  -11.5770    5.6820   10.5960 N   0  0  0  0  0  0  0  0  0  0  0  0
  -12.4690    4.7490   10.1080 N   0  0  0  0  0  0  0  0  0  0  0  0
  -12.0160    4.1880    8.9920 N   0  0  0  0  0  0  0  0  0  0  0  0
  -10.8400    4.7900    8.7610 N   0  0  0  0  0  0  0  0  0  0  0  0
   -9.9950    4.4790    7.6090 C   0  0  0  0  0  0  0  0  0  0  0  0
   -8.6630    5.2070    7.7200 C   0  0  0  0  0  0  0  0  0  0  0  0
  -10.7490    4.8610    6.3730 C   0  0  0  0  0  0  0  0  0  0  0  0
  -11.0350    6.2020    6.1170 C   0  0  0  0  0  0  0  0  0  0  0  0
  -11.7370    6.5580    4.9650 C   0  0  0  0  0  0  0  0  0  0  0  0
  -12.1550    5.5730    4.0710 C   0  0  0  0  0  0  0  0  0  0  0  0
  -11.8700    4.2310    4.3270 C   0  0  0  0  0  0  0  0  0  0  0  0
  -11.1660    3.8760    5.4790 C   0  0  0  0  0  0  0  0  0  0  0  0
  -12.0160    7.8660    4.7150 O   0  0  0  0  0  0  0  0  0  0  0  0
   -6.8990    7.6510    9.7710 O   0  0  0  0  0  0  0  0  0  0  0  0
   -6.8415    3.0794    5.3932 N   0  0  0  0  0  0  0  0  0  0  0  0
   -7.3538    2.4404    4.3229 C   0  0  0  0  0  0  0  0  0  0  0  0
   -6.7401    1.3976    3.6326 C   0  0  0  0  0  0  0  0  0  0  0  0
   -7.4110    0.8584    2.5173 C   0  0  0  0  0  0  0  0  0  0  0  0
   -6.7758   -0.2378    1.7155 C   0  0  0  0  0  0  0  0  0  0  0  0
   -8.6511    1.4029    2.1155 C   0  0  0  0  0  0  0  0  0  0  0  0
   -9.2188    2.4547    2.8481 C   0  0  0  0  0  0  0  0  0  0  0  0
   -8.5448    2.9247    3.9311 N   0  0  0  0  0  0  0  0  0  0  0  0
   -8.8412    3.9217    4.7848 C   0  0  0  0  0  0  0  0  0  0  0  0
  -10.0030    4.8768    4.6235 C   0  0  0  0  0  0  0  0  0  0  0  0
   -9.7608    5.8610    3.5432 N   0  0  0  0  0  0  0  0  0  0  0  0
  -11.0054    6.5881    3.2392 C   0  0  0  0  0  0  0  0  0  0  0  0
   -8.7038    6.8201    3.9163 C   0  0  0  0  0  0  0  0  0  0  0  0
  1  3  4  0
  1 14  4  0
  1  2  1  0
  3  4  4  0
  4  5  4  0
  5  6  4  0
  5 22  1  0
  6  7  1  0
  6 14  4  0
  7  8  1  0
  8  9  4  0
  8 12  4  0
  9 10  4  0
 10 11  4  0
 11 12  4  0
 12 13  1  0
 13 14  1  0
 13 15  1  6
 15 16  4  0
 15 20  4  0
 16 17  4  0
 17 18  4  0
 17 21  1  0
 18 19  4  0
 19 20  4  0
 23 24  4  0
 24 25  4  0
 25 26  4  0
 26 27  1  0
 26 28  4  0
 28 29  4  0
 29 30  4  0
 30 31  4  0
 31 32  1  0
 32 33  1  0
 33 34  1  0
 33 35  1  0
 30 24  4  0
  2 23  4  0
  2 31  4  0
M  CHG  1  33   1
M  END
$$$$

     RDKit          3D

 35 40  0  0  0  0  0  0  0  0999 V2000
   -7.6410    4.9930    6.8080 C   0  0  0  0  0  0  0  0  0  1  0  0
   -7.7310    4.0530    5.7140 C   0  0  0  0  0  0  0  0  0  2  0  0
   -6.4520    5.6300    6.8680 N   0  0  0  0  0  0  0  0  0  0  0  0
   -6.2260    6.5240    7.8670 N   0  0  0  0  0  0  0  0  0  0  0  0
   -7.1930    6.7500    8.7820 C   0  0  0  0  0  0  0  0  0  0  0  0
   -8.4240    6.1170    8.7580 C   0  0  0  0  0  0  0  0  0  0  0  0
   -9.3950    6.3570    9.7450 N   0  0  0  0  0  0  0  0  0  0  0  0
  -10.5620    5.6840    9.7600 C   0  0  0  0  0  0  0  0  0  0  0  0
  -11.5770    5.6820   10.5960 N   0  0  0  0  0  0  0  0  0  0  0  0
  -12.4690    4.7490   10.1080 N   0  0  0  0  0  0  0  0  0  0  0  0
  -12.0160    4.1880    8.9920 N   0  0  0  0  0  0  0  0  0  0  0  0
  -10.8400    4.7900    8.7610 N   0  0  0  0  0  0  0  0  0  0  0  0
   -9.9950    4.4790    7.6090 C   0  0  0  0  0  0  0  0  0  0  0  0
   -8.6630    5.2070    7.7200 C   0  0  0  0  0  0  0  0  0  0  0  0
  -10.7490    4.8610    6.3730 C   0  0  0  0  0  0  0  0  0  0  0  0
  -11.0350    6.2020    6.1170 C   0  0  0  0  0  0  0  0  0  0  0  0
  -11.7370    6.5580    4.9650 C   0  0  0  0  0  0  0  0  0  0  0  0
  -12.1550    5.5730    4.0710 C   0  0  0  0  0  0  0  0  0  0  0  0
  -11.8700    4.2310    4.3270 C   0  0  0  0  0  0  0  0  0  0  0  0
  -11.1660    3.8760    5.4790 C   0  0  0  0  0  0  0  0  0  0  0  0
  -12.0160    7.8660    4.7150 O   0  0  0  0  0  0  0  0  0  0  0  0
   -6.8990    7.6510    9.7710 O   0  0  0  0  0  0  0  0  0  0  0  0
   -6.8374    3.0857    5.3867 N   0  0  0  0  0  0  0  0  0  0  0  0
   -7.3513    2.4453    4.3180 C   0  0  0  0  0  0  0  0  0  0  0  0
   -6.7345    1.4077    3.6225 C   0  0  0  0  0  0  0  0  0  0  0  0
   -7.4077    0.8663    2.5097 C   0  0  0  0  0  0  0  0  0  0  0  0
   -6.7697   -0.2241    1.7021 C   0  0  0  0  0  0  0  0  0  0  0  0
   -8.6534    1.4034    2.1155 C   0  0  0  0  0  0  0  0  0  0  0  0
   -9.2240    2.4503    2.8529 C   0  0  0  0  0  0  0  0  0  0  0  0
   -8.5474    2.9226    3.9334 N   0  0  0  0  0  0  0  0  0  0  0  0
   -8.8456    3.9163    4.7901 C   0  0  0  0  0  0  0  0  0  0  0  0
  -10.0142    4.8643    4.6364 C   0  0  0  0  0  0  0  0  0  0  0  0
   -9.7830    5.8529    3.5576 N   0  0  0  0  0  0  0  0  0  0  0  0
   -8.7307    6.8178    3.9287 C   0  0  0  0  0  0  0  0  0  0  0  0
  -11.0334    6.5728    3.2607 C   0  0  0  0  0  0  0  0  0  0  0  0
  1  3  4  0
  1 14  4  0
  1  2  1  0
  3  4  4  0
  4  5  4  0
  5  6  4  0
  5 22  1  0
  6  7  1  0
  6 14  4  0
  7  8  1  0
  8  9  4  0
  8 12  4  0
  9 10  4  0
 10 11  4  0
 11 12  4  0
 12 13  1  0
 13 14  1  0
 13 15  1  6
 15 16  4  0
 15 20  4  0
 16 17  4  0
 17 18  4  0
 17 21  1  0
 18 19  4  0
 19 20  4  0
 23 24  4  0
 24 25  4  0
 25 26  4  0
 26 27  1  0
 26 28  4  0
 28 29  4  0
 29 30  4  0
 30 31  4  0
 31 32  1  0
 32 33  1  0
 33 34  1  0
 33 35  1  0
 30 24  4  0
  2 23  4  0
  2 31  4  0
M  CHG  1  33   1
M  END
$$$$

     RDKit          3D

 29 33  0  0  0  0  0  0  0  0999 V2000
   -7.6410    4.9930    6.8080 C   0  0  0  0  0  0  0  0  0  1  0  0
   -7.7310    4.0530    5.7140 C   0  0  0  0  0  0  0  0  0  2  0  0
   -6.4520    5.6300    6.8680 N   0  0  0  0  0  0  0  0  0  0  0  0
   -6.2260    6.5240    7.8670 N   0  0  0  0  0  0  0  0  0  0  0  0
   -7.1930    6.7500    8.7820 C   0  0  0  0  0  0  0  0  0  0  0  0
   -8.4240    6.1170    8.7580 C   0  0  0  0  0  0  0  0  0  0  0  0
   -9.3950    6.3570    9.7450 N   0  0  0  0  0  0  0  0  0  0  0  0
  -10.5620    5.6840    9.7600 C   0  0  0  0  0  0  0  0  0  0  0  0
  -11.5770    5.6820   10.5960 N   0  0  0  0  0  0  0  0  0  0  0  0
  -12.4690    4.7490   10.1080 N   0  0  0  0  0  0  0  0  0  0  0  0
  -12.0160    4.1880    8.9920 N   0  0  0  0  0  0  0  0  0  0  0  0
  -10.8400    4.7900    8.7610 N   0  0  0  0  0  0  0  0  0  0  0  0
   -9.9950    4.4790    7.6090 C   0  0  0  0  0  0  0  0  0  0  0  0
   -8.6630    5.2070    7.7200 C   0  0  0  0  0  0  0  0  0  0  0  0
  -10.7490    4.8610    6.3730 C   0  0  0  0  0  0  0  0  0  0  0  0
  -11.0350    6.2020    6.1170 C   0  0  0  0  0  0  0  0  0  0  0  0
  -11.7370    6.5580    4.9650 C   0  0  0  0  0  0  0  0  0  0  0  0
  -12.1550    5.5730    4.0710 C   0  0  0  0  0  0  0  0  0  0  0  0
  -11.8700    4.2310    4.3270 C   0  0  0  0  0  0  0  0  0  0  0  0
  -11.1660    3.8760    5.4790 C   0  0  0  0  0  0  0  0  0  0  0  0
  -12.0160    7.8660    4.7150 O   0  0  0  0  0  0  0  0  0  0  0  0
   -6.8990    7.6510    9.7710 O   0  0  0  0  0  0  0  0  0  0  0  0
   -7.0247    2.8295    5.6442 C   0  0  0  0  0  0  0  0  0  0  0  0
   -7.2357    1.8842    4.6352 C   0  0  0  0  0  0  0  0  0  0  0  0
   -8.2320    2.0925    3.6768 C   0  0  0  0  0  0  0  0  0  0  0  0
   -9.0266    3.2418    3.7298 C   0  0  0  0  0  0  0  0  0  0  0  0
   -9.9943    3.4380    2.7998 F   0  0  0  0  0  0  0  0  0  0  0  0
   -8.8226    4.1893    4.7399 C   0  0  0  0  0  0  0  0  0  0  0  0
   -9.6026    5.3003    4.7831 F   0  0  0  0  0  0  0  0  0  0  0  0
  1  3  4  0
  1 14  4  0
  1  2  1  0
  3  4  4  0
  4  5  4  0
  5  6  4  0
  5 22  1  0
  6  7  1  0
  6 14  4  0
  7  8  1  0
  8  9  4  0
  8 12  4  0
  9 10  4  0
 10 11  4  0
 11 12  4  0
 12 13  1  0
 13 14  1  0
 13 15  1  6
 15 16  4  0
 15 20  4  0
 16 17  4  0
 17 18  4  0
 17 21  1  0
 18 19  4  0
 19 20  4  0
 23 24  4  0
 24 25  4  0
 25 26  4  0
 26 27  1  0
 26 28  4  0
 28 29  1  0
  2 23  4  0
  2 28  4  0
M  END
$$$$

     RDKit          3D

 42 48  0  0  0  0  0  0  0  0999 V2000
   -7.6410    4.9930    6.8080 C   0  0  0  0  0  0  0  0  0  1  0  0
   -7.7310    4.0530    5.7140 C   0  0  0  0  0  0  0  0  0  2  0  0
   -6.4520    5.6300    6.8680 N   0  0  0  0  0  0  0  0  0  0  0  0
   -6.2260    6.5240    7.8670 N   0  0  0  0  0  0  0  0  0  0  0  0
   -7.1930    6.7500    8.7820 C   0  0  0  0  0  0  0  0  0  0  0  0
   -8.4240    6.1170    8.7580 C   0  0  0  0  0  0  0  0  0  0  0  0
   -9.3950    6.3570    9.7450 N   0  0  0  0  0  0  0  0  0  0  0  0
  -10.5620    5.6840    9.7600 C   0  0  0  0  0  0  0  0  0  0  0  0
  -11.5770    5.6820   10.5960 N   0  0  0  0  0  0  0  0  0  0  0  0
  -12.4690    4.7490   10.1080 N   0  0  0  0  0  0  0  0  0  0  0  0
  -12.0160    4.1880    8.9920 N   0  0  0  0  0  0  0  0  0  0  0  0
  -10.8400    4.7900    8.7610 N   0  0  0  0  0  0  0  0  0  0  0  0
   -9.9950    4.4790    7.6090 C   0  0  0  0  0  0  0  0  0  0  0  0
   -8.6630    5.2070    7.7200 C   0  0  0  0  0  0  0  0  0  0  0  0
  -10.7490    4.8610    6.3730 C   0  0  0  0  0  0  0  0  0  0  0  0
  -11.0350    6.2020    6.1170 C   0  0  0  0  0  0  0  0  0  0  0  0
  -11.7370    6.5580    4.9650 C   0  0  0  0  0  0  0  0  0  0  0  0
  -12.1550    5.5730    4.0710 C   0  0  0  0  0  0  0  0  0  0  0  0
  -11.8700    4.2310    4.3270 C   0  0  0  0  0  0  0  0  0  0  0  0
  -11.1660    3.8760    5.4790 C   0  0  0  0  0  0  0  0  0  0  0  0
  -12.0160    7.8660    4.7150 O   0  0  0  0  0  0  0  0  0  0  0  0
   -6.8990    7.6510    9.7710 O   0  0  0  0  0  0  0  0  0  0  0  0
   -6.7594    3.2833    5.1916 N   0  0  0  0  0  0  0  0  0  0  0  0
   -7.2299    2.4959    4.2350 N   0  0  0  0  0  0  0  0  0  0  0  0
   -6.4029    1.5935    3.4703 C   0  0  0  0  0  0  0  0  0  0  0  0
   -6.9678    0.6199    2.6233 C   0  0  0  0  0  0  0  0  0  0  0  0
   -6.1495   -0.2527    1.8988 C   0  0  0  0  0  0  0  0  0  0  0  0
   -4.7544   -0.1651    1.9994 C   0  0  0  0  0  0  0  0  0  0  0  0
   -3.8806   -1.1319    1.2562 C   0  0  0  0  0  0  0  0  0  0  0  0
   -4.1866    0.7857    2.8574 C   0  0  0  0  0  0  0  0  0  0  0  0
   -5.0020    1.6597    3.5818 C   0  0  0  0  0  0  0  0  0  0  0  0
   -8.5566    2.7053    4.0949 C   0  0  0  0  0  0  0  0  0  0  0  0
   -8.9502    3.6561    5.0148 C   0  0  0  0  0  0  0  0  0  0  0  0
  -10.2794    4.2910    5.0947 C   0  0  0  0  0  0  0  0  0  0  0  0
  -10.3533    5.5455    5.1826 O   0  0  0  0  0  0  0  0  0  0  0  0
  -11.4900    3.5204    5.0733 N   0  0  0  0  0  0  0  0  0  0  0  0
  -11.5159    2.0868    5.3792 C   0  0  0  0  0  0  0  0  0  0  0  0
  -12.9514    1.5795    5.5847 C   0  0  0  0  0  0  0  0  0  0  0  0
  -13.7865    1.6609    4.3118 C   0  0  0  0  0  0  0  0  0  0  0  0
  -14.6716    0.4605    4.4194 C   0  0  0  0  0  0  0  0  0  0  0  0
  -13.8505   -0.4919    5.2623 C   0  0  0  0  0  0  0  0  0  0  0  0
  -12.9191    0.2395    6.0273 O   0  0  0  0  0  0  0  0  0  0  0  0
  1  3  4  0
  1 14  4  0
  1  2  1  0
  3  4  4  0
  4  5  4  0
  5  6  4  0
  5 22  1  0
  6  7  1  0
  6 14  4  0
  7  8  1  0
  8  9  4  0
  8 12  4  0
  9 10  4  0
 10 11  4  0
 11 12  4  0
 12 13  1  0
 13 14  1  0
 13 15  1  6
 15 16  4  0
 15 20  4  0
 16 17  4  0
 17 18  4  0
 17 21  1  0
 18 19  4  0
 19 20  4  0
 23 24  4  0
 24 25  1  0
 25 26  4  0
 26 27  4  0
 27 28  4  0
 28 29  1  0
 28 30  4  0
 30 31  4  0
 24 32  4  0
 32 33  4  0
 33 34  1  0
 34 35  2  0
 34 36  1  0
 36 37  1  0
 37 38  1  0
 38 39  1  0
 39 40  1  0
 40 41  1  0
 41 42  1  0
 42 38  1  0
 31 25  4  0
  2 23  4  0
  2 33  4  0
M  END
$$$$

     RDKit          3D

 42 48  0  0  0  0  0  0  0  0999 V2000
   -7.6410    4.9930    6.8080 C   0  0  0  0  0  0  0  0  0  1  0  0
   -7.7310    4.0530    5.7140 C   0  0  0  0  0  0  0  0  0  2  0  0
   -6.4520    5.6300    6.8680 N   0  0  0  0  0  0  0  0  0  0  0  0
   -6.2260    6.5240    7.8670 N   0  0  0  0  0  0  0  0  0  0  0  0
   -7.1930    6.7500    8.7820 C   0  0  0  0  0  0  0  0  0  0  0  0
   -8.4240    6.1170    8.7580 C   0  0  0  0  0  0  0  0  0  0  0  0
   -9.3950    6.3570    9.7450 N   0  0  0  0  0  0  0  0  0  0  0  0
  -10.5620    5.6840    9.7600 C   0  0  0  0  0  0  0  0  0  0  0  0
  -11.5770    5.6820   10.5960 N   0  0  0  0  0  0  0  0  0  0  0  0
  -12.4690    4.7490   10.1080 N   0  0  0  0  0  0  0  0  0  0  0  0
  -12.0160    4.1880    8.9920 N   0  0  0  0  0  0  0  0  0  0  0  0
  -10.8400    4.7900    8.7610 N   0  0  0  0  0  0  0  0  0  0  0  0
   -9.9950    4.4790    7.6090 C   0  0  0  0  0  0  0  0  0  0  0  0
   -8.6630    5.2070    7.7200 C   0  0  0  0  0  0  0  0  0  0  0  0
  -10.7490    4.8610    6.3730 C   0  0  0  0  0  0  0  0  0  0  0  0
  -11.0350    6.2020    6.1170 C   0  0  0  0  0  0  0  0  0  0  0  0
  -11.7370    6.5580    4.9650 C   0  0  0  0  0  0  0  0  0  0  0  0
  -12.1550    5.5730    4.0710 C   0  0  0  0  0  0  0  0  0  0  0  0
  -11.8700    4.2310    4.3270 C   0  0  0  0  0  0  0  0  0  0  0  0
  -11.1660    3.8760    5.4790 C   0  0  0  0  0  0  0  0  0  0  0  0
  -12.0160    7.8660    4.7150 O   0  0  0  0  0  0  0  0  0  0  0  0
   -6.8990    7.6510    9.7710 O   0  0  0  0  0  0  0  0  0  0  0  0
   -6.8322    3.1233    5.3280 N   0  0  0  0  0  0  0  0  0  0  0  0
   -7.3295    2.3417    4.3782 N   0  0  0  0  0  0  0  0  0  0  0  0
   -6.5757    1.2961    3.7256 C   0  0  0  0  0  0  0  0  0  0  0  0
   -7.0785    0.6281    2.5904 C   0  0  0  0  0  0  0  0  0  0  0  0
   -6.3303   -0.3713    1.9639 C   0  0  0  0  0  0  0  0  0  0  0  0
   -5.0705   -0.7302    2.4568 C   0  0  0  0  0  0  0  0  0  0  0  0
   -4.2646   -1.7810    1.7500 C   0  0  0  0  0  0  0  0  0  0  0  0
   -4.5561   -0.0625    3.5772 C   0  0  0  0  0  0  0  0  0  0  0  0
   -5.3032    0.9386    4.2064 C   0  0  0  0  0  0  0  0  0  0  0  0
   -8.6050    2.7072    4.1245 C   0  0  0  0  0  0  0  0  0  0  0  0
   -8.9275    3.7736    4.9363 C   0  0  0  0  0  0  0  0  0  0  0  0
  -10.1464    4.5860    4.8253 C   0  0  0  0  0  0  0  0  0  0  0  0
  -10.1214    5.8086    5.1199 O   0  0  0  0  0  0  0  0  0  0  0  0
  -11.3356    4.0131    4.2858 N   0  0  0  0  0  0  0  0  0  0  0  0
  -11.9347    4.5775    3.0739 C   0  0  0  0  0  0  0  0  0  0  0  0
  -13.1699    3.7773    2.6455 C   0  0  0  0  0  0  0  0  0  0  0  0
  -14.3156    3.9132    3.6336 C   0  0  0  0  0  0  0  0  0  0  0  0
  -15.5201    3.7522    2.7608 C   0  0  0  0  0  0  0  0  0  0  0  0
  -15.0212    4.1369    1.3804 C   0  0  0  0  0  0  0  0  0  0  0  0
  -13.6109    4.2250    1.3848 O   0  0  0  0  0  0  0  0  0  0  0  0
  1  3  4  0
  1 14  4  0
  1  2  1  0
  3  4  4  0
  4  5  4  0
  5  6  4  0
  5 22  1  0
  6  7  1  0
  6 14  4  0
  7  8  1  0
  8  9  4  0
  8 12  4  0
  9 10  4  0
 10 11  4  0
 11 12  4  0
 12 13  1  0
 13 14  1  0
 13 15  1  6
 15 16  4  0
 15 20  4  0
 16 17  4  0
 17 18  4  0
 17 21  1  0
 18 19  4  0
 19 20  4  0
 23 24  4  0
 24 25  1  0
 25 26  4  0
 26 27  4  0
 27 28  4  0
 28 29  1  0
 28 30  4  0
 30 31  4  0
 24 32  4  0
 32 33  4  0
 33 34  1  0
 34 35  2  0
 34 36  1  0
 36 37  1  0
 37 38  1  0
 38 39  1  0
 39 40  1  0
 40 41  1  0
 41 42  1  0
 42 38  1  0
 31 25  4  0
  2 23  4  0
  2 33  4  0
M  END
$$$$

     RDKit          3D

 47 53  0  0  0  0  0  0  0  0999 V2000
   -7.6410    4.9930    6.8080 C   0  0  0  0  0  0  0  0  0  1  0  0
   -7.7310    4.0530    5.7140 C   0  0  0  0  0  0  0  0  0  2  0  0
   -6.4520    5.6300    6.8680 N   0  0  0  0  0  0  0  0  0  0  0  0
   -6.2260    6.5240    7.8670 N   0  0  0  0  0  0  0  0  0  0  0  0
   -7.1930    6.7500    8.7820 C   0  0  0  0  0  0  0  0  0  0  0  0
   -8.4240    6.1170    8.7580 C   0  0  0  0  0  0  0  0  0  0  0  0
   -9.3950    6.3570    9.7450 N   0  0  0  0  0  0  0  0  0  0  0  0
  -10.5620    5.6840    9.7600 C   0  0  0  0  0  0  0  0  0  0  0  0
  -11.5770    5.6820   10.5960 N   0  0  0  0  0  0  0  0  0  0  0  0
  -12.4690    4.7490   10.1080 N   0  0  0  0  0  0  0  0  0  0  0  0
  -12.0160    4.1880    8.9920 N   0  0  0  0  0  0  0  0  0  0  0  0
  -10.8400    4.7900    8.7610 N   0  0  0  0  0  0  0  0  0  0  0  0
   -9.9950    4.4790    7.6090 C   0  0  0  0  0  0  0  0  0  0  0  0
   -8.6630    5.2070    7.7200 C   0  0  0  0  0  0  0  0  0  0  0  0
  -10.7490    4.8610    6.3730 C   0  0  0  0  0  0  0  0  0  0  0  0
  -11.0350    6.2020    6.1170 C   0  0  0  0  0  0  0  0  0  0  0  0
  -11.7370    6.5580    4.9650 C   0  0  0  0  0  0  0  0  0  0  0  0
  -12.1550    5.5730    4.0710 C   0  0  0  0  0  0  0  0  0  0  0  0
  -11.8700    4.2310    4.3270 C   0  0  0  0  0  0  0  0  0  0  0  0
  -11.1660    3.8760    5.4790 C   0  0  0  0  0  0  0  0  0  0  0  0
  -12.0160    7.8660    4.7150 O   0  0  0  0  0  0  0  0  0  0  0  0
   -6.8990    7.6510    9.7710 O   0  0  0  0  0  0  0  0  0  0  0  0
   -6.8565    3.0647    5.4145 N   0  0  0  0  0  0  0  0  0  0  0  0
   -7.2771    2.4342    4.3310 N   0  0  0  0  0  0  0  0  0  0  0  0
   -8.4330    2.9999    3.9448 C   0  0  0  0  0  0  0  0  0  0  0  0
   -9.2423    2.5676    2.5846 S   0  0  0  0  0  0  0  0  0  0  0  0
   -8.7933    3.9970    4.7823 N   0  0  0  0  0  0  0  0  0  0  0  0
   -9.9021    4.9507    4.6275 C   0  0  0  0  0  0  0  0  0  0  0  0
   -9.4063    6.3230    4.1486 C   0  0  0  0  0  0  0  0  0  0  0  0
   -8.6342    6.2325    2.8577 C   0  0  0  0  0  0  0  0  0  0  0  0
   -7.3734    6.2361    2.9059 O   0  0  0  0  0  0  0  0  0  0  0  0
   -9.2777    6.1504    1.5752 N   0  0  0  0  0  0  0  0  0  0  0  0
  -10.7271    6.2400    1.3903 C   0  0  0  0  0  0  0  0  0  0  0  0
  -11.0733    6.2666   -0.0741 C   0  0  0  0  0  0  0  0  0  0  0  0
  -11.5570    5.1169   -0.7168 C   0  0  0  0  0  0  0  0  0  0  0  0
  -11.8695    5.1493   -2.0796 C   0  0  0  0  0  0  0  0  0  0  0  0
  -11.6887    6.3250   -2.8245 C   0  0  0  0  0  0  0  0  0  0  0  0
  -12.0356    6.3364   -4.2214 N   0  0  0  0  0  0  0  0  0  0  0  0
  -11.3757    7.1539   -5.2068 C   0  0  0  0  0  0  0  0  0  0  0  0
  -10.2580    7.6770   -4.9527 O   0  0  0  0  0  0  0  0  0  0  0  0
  -11.9748    7.3785   -6.5309 C   0  0  0  0  0  0  0  0  0  0  0  0
  -13.2205    6.9541   -6.9573 C   0  0  0  0  0  0  0  0  0  0  0  0
  -13.3487    7.4205   -8.2497 C   0  0  0  0  0  0  0  0  0  0  0  0
  -12.1785    8.0960   -8.5336 C   0  0  0  0  0  0  0  0  0  0  0  0
  -11.3808    8.0545   -7.4901 O   0  0  0  0  0  0  0  0  0  0  0  0
  -11.2202    7.4810   -2.1737 C   0  0  0  0  0  0  0  0  0  0  0  0
  -10.9077    7.4491   -0.8114 C   0  0  0  0  0  0  0  0  0  0  0  0
  1  3  4  0
  1 14  4  0
  1  2  1  0
  3  4  4  0
  4  5  4  0
  5  6  4  0
  5 22  1  0
  6  7  1  0
  6 14  4  0
  7  8  1  0
  8  9  4  0
  8 12  4  0
  9 10  4  0
 10 11  4  0
 11 12  4  0
 12 13  1  0
 13 14  1  0
 13 15  1  6
 15 16  4  0
 15 20  4  0
 16 17  4  0
 17 18  4  0
 17 21  1  0
 18 19  4  0
 19 20  4  0
 23 24  4  0
 24 25  4  0
 25 26  2  0
 25 27  4  0
 27 28  1  0
 28 29  1  0
 29 30  1  0
 30 31  2  0
 30 32  1  0
 32 33  1  0
 33 34  1  0
 34 35  4  0
 35 36  4  0
 36 37  4  0
 37 38  1  0
 38 39  1  0
 39 40  2  0
 39 41  1  0
 41 42  4  0
 42 43  4  0
 43 44  4  0
 44 45  4  0
 37 46  4  0
 46 47  4  0
 47 34  4  0
 45 41  4  0
  2 23  4  0
  2 27  4  0
M  END
$$$$

     RDKit          3D

 32 37  0  0  0  0  0  0  0  0999 V2000
   -7.6410    4.9930    6.8080 C   0  0  0  0  0  0  0  0  0  1  0  0
   -7.7310    4.0530    5.7140 C   0  0  0  0  0  0  0  0  0  2  0  0
   -6.4520    5.6300    6.8680 N   0  0  0  0  0  0  0  0  0  0  0  0
   -6.2260    6.5240    7.8670 N   0  0  0  0  0  0  0  0  0  0  0  0
   -7.1930    6.7500    8.7820 C   0  0  0  0  0  0  0  0  0  0  0  0
   -8.4240    6.1170    8.7580 C   0  0  0  0  0  0  0  0  0  0  0  0
   -9.3950    6.3570    9.7450 N   0  0  0  0  0  0  0  0  0  0  0  0
  -10.5620    5.6840    9.7600 C   0  0  0  0  0  0  0  0  0  0  0  0
  -11.5770    5.6820   10.5960 N   0  0  0  0  0  0  0  0  0  0  0  0
  -12.4690    4.7490   10.1080 N   0  0  0  0  0  0  0  0  0  0  0  0
  -12.0160    4.1880    8.9920 N   0  0  0  0  0  0  0  0  0  0  0  0
  -10.8400    4.7900    8.7610 N   0  0  0  0  0  0  0  0  0  0  0  0
   -9.9950    4.4790    7.6090 C   0  0  0  0  0  0  0  0  0  0  0  0
   -8.6630    5.2070    7.7200 C   0  0  0  0  0  0  0  0  0  0  0  0
  -10.7490    4.8610    6.3730 C   0  0  0  0  0  0  0  0  0  0  0  0
  -11.0350    6.2020    6.1170 C   0  0  0  0  0  0  0  0  0  0  0  0
  -11.7370    6.5580    4.9650 C   0  0  0  0  0  0  0  0  0  0  0  0
  -12.1550    5.5730    4.0710 C   0  0  0  0  0  0  0  0  0  0  0  0
  -11.8700    4.2310    4.3270 C   0  0  0  0  0  0  0  0  0  0  0  0
  -11.1660    3.8760    5.4790 C   0  0  0  0  0  0  0  0  0  0  0  0
  -12.0160    7.8660    4.7150 O   0  0  0  0  0  0  0  0  0  0  0  0
   -6.8990    7.6510    9.7710 O   0  0  0  0  0  0  0  0  0  0  0  0
   -6.9047    3.0422    5.3803 N   0  0  0  0  0  0  0  0  0  0  0  0
   -7.5007    2.3870    4.3550 C   0  0  0  0  0  0  0  0  0  1  0  0
   -6.9152    1.2208    3.6847 C   0  0  0  0  0  0  0  0  0  2  0  0
   -5.6925    0.6551    3.9661 C   0  0  0  0  0  0  0  0  0  0  0  0
   -5.5780   -0.4233    3.1128 C   0  0  0  0  0  0  0  0  0  0  0  0
   -6.7355   -0.4489    2.3680 C   0  0  0  0  0  0  0  0  0  0  0  0
   -7.5115    0.5457    2.7300 O   0  0  0  0  0  0  0  0  0  0  0  0
   -8.6672    2.8979    4.0220 O   0  0  0  0  0  0  0  0  0  0  0  0
   -8.8663    3.9108    4.8270 C   0  0  0  0  0  0  0  0  0  0  0  0
   -9.9884    4.7886    4.7448 N   0  0  0  0  0  0  0  0  0  0  0  0
  1  3  4  0
  1 14  4  0
  1  2  1  0
  3  4  4  0
  4  5  4  0
  5  6  4  0
  5 22  1  0
  6  7  1  0
  6 14  4  0
  7  8  1  0
  8  9  4  0
  8 12  4  0
  9 10  4  0
 10 11  4  0
 11 12  4  0
 12 13  1  0
 13 14  1  0
 13 15  1  6
 15 16  4  0
 15 20  4  0
 16 17  4  0
 17 18  4  0
 17 21  1  0
 18 19  4  0
 19 20  4  0
 23 24  4  0
 24 25  1  0
 25 26  4  0
 26 27  4  0
 27 28  4  0
 28 29  4  0
 24 30  4  0
 30 31  4  0
 31 32  1  0
 29 25  4  0
  2 23  4  0
  2 31  4  0
M  END
$$$$

     RDKit          3D

 45 51  0  0  0  0  0  0  0  0999 V2000
   -7.6410    4.9930    6.8080 C   0  0  0  0  0  0  0  0  0  1  0  0
   -7.7310    4.0530    5.7140 C   0  0  0  0  0  0  0  0  0  2  0  0
   -6.4520    5.6300    6.8680 N   0  0  0  0  0  0  0  0  0  0  0  0
   -6.2260    6.5240    7.8670 N   0  0  0  0  0  0  0  0  0  0  0  0
   -7.1930    6.7500    8.7820 C   0  0  0  0  0  0  0  0  0  0  0  0
   -8.4240    6.1170    8.7580 C   0  0  0  0  0  0  0  0  0  0  0  0
   -9.3950    6.3570    9.7450 N   0  0  0  0  0  0  0  0  0  0  0  0
  -10.5620    5.6840    9.7600 C   0  0  0  0  0  0  0  0  0  0  0  0
  -11.5770    5.6820   10.5960 N   0  0  0  0  0  0  0  0  0  0  0  0
  -12.4690    4.7490   10.1080 N   0  0  0  0  0  0  0  0  0  0  0  0
  -12.0160    4.1880    8.9920 N   0  0  0  0  0  0  0  0  0  0  0  0
  -10.8400    4.7900    8.7610 N   0  0  0  0  0  0  0  0  0  0  0  0
   -9.9950    4.4790    7.6090 C   0  0  0  0  0  0  0  0  0  0  0  0
   -8.6630    5.2070    7.7200 C   0  0  0  0  0  0  0  0  0  0  0  0
  -10.7490    4.8610    6.3730 C   0  0  0  0  0  0  0  0  0  0  0  0
  -11.0350    6.2020    6.1170 C   0  0  0  0  0  0  0  0  0  0  0  0
  -11.7370    6.5580    4.9650 C   0  0  0  0  0  0  0  0  0  0  0  0
  -12.1550    5.5730    4.0710 C   0  0  0  0  0  0  0  0  0  0  0  0
  -11.8700    4.2310    4.3270 C   0  0  0  0  0  0  0  0  0  0  0  0
  -11.1660    3.8760    5.4790 C   0  0  0  0  0  0  0  0  0  0  0  0
  -12.0160    7.8660    4.7150 O   0  0  0  0  0  0  0  0  0  0  0  0
   -6.8990    7.6510    9.7710 O   0  0  0  0  0  0  0  0  0  0  0  0
   -6.9737    2.8745    5.5481 C   0  0  0  0  0  0  0  0  0  0  0  0
   -5.8176    2.4902    6.4152 C   0  0  0  0  0  0  0  0  0  0  0  0
   -7.4602    2.0136    4.1905 S   0  0  0  0  0  0  0  0  0  0  0  0
   -8.7487    3.0190    3.7885 C   0  0  0  0  0  0  0  0  0  0  0  0
   -9.4971    2.9401    2.5670 N   0  0  0  0  0  0  0  0  0  0  0  0
   -9.7691    1.7298    1.8421 C   0  0  0  0  0  0  0  0  0  0  0  0
   -9.9713    1.8108    0.6002 O   0  0  0  0  0  0  0  0  0  0  0  0
   -9.9215    0.3870    2.5421 C   0  0  0  0  0  0  0  0  0  0  0  0
   -8.7751   -0.6137    2.1596 C   0  0  0  0  0  0  0  0  0  0  0  0
   -9.0204   -1.8829    2.9582 C   0  0  0  0  0  0  0  0  0  0  0  0
  -10.2094   -2.4751    2.7332 C   0  0  0  0  0  0  0  0  0  0  0  0
  -11.1166   -1.7472    1.7522 C   0  0  0  0  0  0  0  0  0  0  0  0
  -10.3254   -1.6375    0.4147 C   0  0  0  0  0  0  0  0  0  0  0  0
   -8.9126   -1.0292    0.6684 C   0  0  0  0  0  0  0  0  0  0  0  0
  -11.3305   -0.3164    2.3470 C   0  0  0  0  0  0  0  0  0  0  0  0
  -12.3763    0.5053    1.6243 C   0  0  0  0  0  0  0  0  0  0  0  0
  -12.9307    0.0860    0.5724 O   0  0  0  0  0  0  0  0  0  0  0  0
  -12.7756    1.7246    2.1582 O   0  0  0  0  0  0  0  0  0  0  0  0
   -8.7911    4.0885    4.6899 C   0  0  0  0  0  0  0  0  0  0  0  0
   -9.7640    5.1968    4.5797 C   0  0  0  0  0  0  0  0  0  0  0  0
   -9.4465    6.3584    4.9614 O   0  0  0  0  0  0  0  0  0  0  0  0
  -11.0354    4.9548    4.0495 O   0  0  0  0  0  0  0  0  0  0  0  0
  -12.0227    5.9715    3.9261 C   0  0  0  0  0  0  0  0  0  0  0  0
  1  3  4  0
  1 14  4  0
  1  2  1  0
  3  4  4  0
  4  5  4  0
  5  6  4  0
  5 22  1  0
  6  7  1  0
  6 14  4  0
  7  8  1  0
  8  9  4  0
  8 12  4  0
  9 10  4  0
 10 11  4  0
 11 12  4  0
 12 13  1  0
 13 14  1  0
 13 15  1  6
 15 16  4  0
 15 20  4  0
 16 17  4  0
 17 18  4  0
 17 21  1  0
 18 19  4  0
 19 20  4  0
 23 24  1  0
 23 25  4  0
 25 26  4  0
 26 27  1  0
 27 28  1  0
 28 29  2  0
 28 30  1  0
 30 31  1  0
 31 32  1  0
 32 33  2  0
 33 34  1  0
 34 35  1  0
 35 36  1  0
 34 37  1  0
 37 38  1  0
 38 39  2  0
 38 40  1  0
 26 41  4  0
 41 42  1  0
 42 43  2  0
 42 44  1  0
 44 45  1  0
 37 30  1  0
 36 31  1  0
  2 23  4  0
  2 41  4  0
M  CHG  1  40  -1
M  END
$$$$

     RDKit          3D

 44 50  0  0  0  0  0  0  0  0999 V2000
   -7.6410    4.9930    6.8080 C   0  0  0  0  0  0  0  0  0  1  0  0
   -7.7310    4.0530    5.7140 C   0  0  0  0  0  0  0  0  0  2  0  0
   -6.4520    5.6300    6.8680 N   0  0  0  0  0  0  0  0  0  0  0  0
   -6.2260    6.5240    7.8670 N   0  0  0  0  0  0  0  0  0  0  0  0
   -7.1930    6.7500    8.7820 C   0  0  0  0  0  0  0  0  0  0  0  0
   -8.4240    6.1170    8.7580 C   0  0  0  0  0  0  0  0  0  0  0  0
   -9.3950    6.3570    9.7450 N   0  0  0  0  0  0  0  0  0  0  0  0
  -10.5620    5.6840    9.7600 C   0  0  0  0  0  0  0  0  0  0  0  0
  -11.5770    5.6820   10.5960 N   0  0  0  0  0  0  0  0  0  0  0  0
  -12.4690    4.7490   10.1080 N   0  0  0  0  0  0  0  0  0  0  0  0
  -12.0160    4.1880    8.9920 N   0  0  0  0  0  0  0  0  0  0  0  0
  -10.8400    4.7900    8.7610 N   0  0  0  0  0  0  0  0  0  0  0  0
   -9.9950    4.4790    7.6090 C   0  0  0  0  0  0  0  0  0  0  0  0
   -8.6630    5.2070    7.7200 C   0  0  0  0  0  0  0  0  0  0  0  0
  -10.7490    4.8610    6.3730 C   0  0  0  0  0  0  0  0  0  0  0  0
  -11.0350    6.2020    6.1170 C   0  0  0  0  0  0  0  0  0  0  0  0
  -11.7370    6.5580    4.9650 C   0  0  0  0  0  0  0  0  0  0  0  0
  -12.1550    5.5730    4.0710 C   0  0  0  0  0  0  0  0  0  0  0  0
  -11.8700    4.2310    4.3270 C   0  0  0  0  0  0  0  0  0  0  0  0
  -11.1660    3.8760    5.4790 C   0  0  0  0  0  0  0  0  0  0  0  0
  -12.0160    7.8660    4.7150 O   0  0  0  0  0  0  0  0  0  0  0  0
   -6.8990    7.6510    9.7710 O   0  0  0  0  0  0  0  0  0  0  0  0
   -7.0416    2.7920    5.6983 C   0  0  0  0  0  0  0  0  0  0  0  0
   -6.0419    2.5546    6.7197 C   0  0  0  0  0  0  0  0  0  0  0  0
   -5.2435    2.3652    7.5358 N   0  0  0  0  0  0  0  0  0  0  0  0
   -7.3109    1.7887    4.7321 C   0  0  0  0  0  0  0  0  0  0  0  0
   -6.5537    0.4922    4.7135 C   0  0  0  0  0  0  0  0  0  0  0  0
   -8.3000    1.9755    3.8164 N   0  0  0  0  0  0  0  0  0  0  0  0
   -9.0080    3.1265    3.8001 C   0  0  0  0  0  0  0  0  0  0  0  0
  -10.2529    3.4899    2.7441 S   0  0  0  0  0  0  0  0  0  0  0  0
  -10.5354    5.0248    3.3838 C   0  0  0  0  0  0  0  0  0  0  0  0
  -11.5746    5.9318    2.8724 C   0  0  0  0  0  0  0  0  0  0  0  0
  -11.7372    6.0295    1.6266 O   0  0  0  0  0  0  0  0  0  0  0  0
  -12.4082    6.6712    3.7814 N   0  0  0  0  0  0  0  0  0  0  0  0
  -13.4311    7.5931    3.3701 C   0  0  0  0  0  0  0  0  0  0  0  0
  -13.6257    8.7733    4.1039 C   0  0  0  0  0  0  0  0  0  0  0  0
  -14.6288    9.6766    3.7396 C   0  0  0  0  0  0  0  0  0  0  0  0
  -15.4580    9.4004    2.6485 C   0  0  0  0  0  0  0  0  0  0  0  0
  -16.8307   10.6329    2.1542 Br  0  0  0  0  0  0  0  0  0  0  0  0
  -15.2886    8.2146    1.9271 C   0  0  0  0  0  0  0  0  0  0  0  0
  -14.2853    7.3099    2.2884 C   0  0  0  0  0  0  0  0  0  0  0  0
   -9.6133    5.2833    4.4124 C   0  0  0  0  0  0  0  0  0  0  0  0
   -9.4201    6.5987    4.9526 N   0  0  0  0  0  0  0  0  0  0  0  0
   -8.7716    4.1712    4.6813 C   0  0  0  0  0  0  0  0  0  0  0  0
  1  3  4  0
  1 14  4  0
  1  2  1  0
  3  4  4  0
  4  5  4  0
  5  6  4  0
  5 22  1  0
  6  7  1  0
  6 14  4  0
  7  8  1  0
  8  9  4  0
  8 12  4  0
  9 10  4  0
 10 11  4  0
 11 12  4  0
 12 13  1  0
 13 14  1  0
 13 15  1  6
 15 16  4  0
 15 20  4  0
 16 17  4  0
 17 18  4  0
 17 21  1  0
 18 19  4  0
 19 20  4  0
 23 24  1  0
 24 25  3  0
 23 26  4  0
 26 27  1  0
 26 28  4  0
 28 29  4  0
 29 30  4  0
 30 31  4  0
 31 32  1  0
 32 33  2  0
 32 34  1  0
 34 35  1  0
 35 36  4  0
 36 37  4  0
 37 38  4  0
 38 39  1  0
 38 40  4  0
 40 41  4  0
 31 42  4  0
 42 43  1  0
 42 44  4  0
 44 29  4  0
 41 35  4  0
  2 23  4  0
  2 44  4  0
M  END
$$$$

     RDKit          3D

 41 47  0  0  0  0  0  0  0  0999 V2000
   -7.6410    4.9930    6.8080 C   0  0  0  0  0  0  0  0  0  1  0  0
   -7.7310    4.0530    5.7140 C   0  0  0  0  0  0  0  0  0  2  0  0
   -6.4520    5.6300    6.8680 N   0  0  0  0  0  0  0  0  0  0  0  0
   -6.2260    6.5240    7.8670 N   0  0  0  0  0  0  0  0  0  0  0  0
   -7.1930    6.7500    8.7820 C   0  0  0  0  0  0  0  0  0  0  0  0
   -8.4240    6.1170    8.7580 C   0  0  0  0  0  0  0  0  0  0  0  0
   -9.3950    6.3570    9.7450 N   0  0  0  0  0  0  0  0  0  0  0  0
  -10.5620    5.6840    9.7600 C   0  0  0  0  0  0  0  0  0  0  0  0
  -11.5770    5.6820   10.5960 N   0  0  0  0  0  0  0  0  0  0  0  0
  -12.4690    4.7490   10.1080 N   0  0  0  0  0  0  0  0  0  0  0  0
  -12.0160    4.1880    8.9920 N   0  0  0  0  0  0  0  0  0  0  0  0
  -10.8400    4.7900    8.7610 N   0  0  0  0  0  0  0  0  0  0  0  0
   -9.9950    4.4790    7.6090 C   0  0  0  0  0  0  0  0  0  0  0  0
   -8.6630    5.2070    7.7200 C   0  0  0  0  0  0  0  0  0  0  0  0
  -10.7490    4.8610    6.3730 C   0  0  0  0  0  0  0  0  0  0  0  0
  -11.0350    6.2020    6.1170 C   0  0  0  0  0  0  0  0  0  0  0  0
  -11.7370    6.5580    4.9650 C   0  0  0  0  0  0  0  0  0  0  0  0
  -12.1550    5.5730    4.0710 C   0  0  0  0  0  0  0  0  0  0  0  0
  -11.8700    4.2310    4.3270 C   0  0  0  0  0  0  0  0  0  0  0  0
  -11.1660    3.8760    5.4790 C   0  0  0  0  0  0  0  0  0  0  0  0
  -12.0160    7.8660    4.7150 O   0  0  0  0  0  0  0  0  0  0  0  0
   -6.8990    7.6510    9.7710 O   0  0  0  0  0  0  0  0  0  0  0  0
   -6.7951    3.1210    5.3876 N   0  0  0  0  0  0  0  0  0  0  0  0
   -7.1364    2.3110    4.3616 C   0  0  0  0  0  0  0  0  0  0  0  0
   -6.0653    1.0293    3.7164 S   0  0  0  0  0  0  0  0  0  0  0  0
   -5.2218    2.1346    2.5265 C   0  0  0  0  0  0  0  0  0  0  0  0
   -4.1428    2.9634    3.1667 C   0  0  0  0  0  0  0  0  0  0  0  0
   -3.8805    2.8373    4.3943 O   0  0  0  0  0  0  0  0  0  0  0  0
   -3.4248    3.9156    2.3683 N   0  0  0  0  0  0  0  0  0  0  0  0
   -2.1729    4.5082    2.7536 C   0  0  0  0  0  0  0  0  0  0  0  0
   -1.2169    3.7831    3.5165 C   0  0  0  0  0  0  0  0  0  0  0  0
    0.0243    4.3596    3.8422 C   0  0  0  0  0  0  0  0  0  0  0  0
    0.2839    5.6467    3.3838 C   0  0  0  0  0  0  0  0  0  0  0  0
   -0.6183    6.3422    2.6480 C   0  0  0  0  0  0  0  0  0  0  0  0
   -1.8579    5.8091    2.3036 C   0  0  0  0  0  0  0  0  0  0  0  0
   -0.0934    7.5796    2.3270 O   0  0  0  0  0  0  0  0  0  0  0  0
    1.2220    7.6638    2.8938 C   0  0  0  0  0  0  0  0  0  0  0  0
    1.4235    6.4093    3.5587 O   0  0  0  0  0  0  0  0  0  0  0  0
   -8.6738    2.6488    3.7691 S   0  0  0  0  0  0  0  0  0  0  0  0
   -8.9175    3.8879    4.8787 C   0  0  0  0  0  0  0  0  0  0  0  0
  -10.0636    4.7404    4.8871 N   0  0  0  0  0  0  0  0  0  0  0  0
  1  3  4  0
  1 14  4  0
  1  2  1  0
  3  4  4  0
  4  5  4  0
  5  6  4  0
  5 22  1  0
  6  7  1  0
  6 14  4  0
  7  8  1  0
  8  9  4  0
  8 12  4  0
  9 10  4  0
 10 11  4  0
 11 12  4  0
 12 13  1  0
 13 14  1  0
 13 15  1  6
 15 16  4  0
 15 20  4  0
 16 17  4  0
 17 18  4  0
 17 21  1  0
 18 19  4  0
 19 20  4  0
 23 24  4  0
 24 25  1  0
 25 26  1  0
 26 27  1  0
 27 28  2  0
 27 29  1  0
 29 30  1  0
 30 31  4  0
 31 32  4  0
 32 33  4  0
 33 34  4  0
 34 35  4  0
 34 36  1  0
 36 37  1  0
 37 38  1  0
 24 39  4  0
 39 40  4  0
 40 41  1  0
 35 30  4  0
 38 33  1  0
  2 23  4  0
  2 40  4  0
M  END
$$$$

     RDKit          3D

 41 47  0  0  0  0  0  0  0  0999 V2000
   -7.6410    4.9930    6.8080 C   0  0  0  0  0  0  0  0  0  1  0  0
   -7.7310    4.0530    5.7140 C   0  0  0  0  0  0  0  0  0  2  0  0
   -6.4520    5.6300    6.8680 N   0  0  0  0  0  0  0  0  0  0  0  0
   -6.2260    6.5240    7.8670 N   0  0  0  0  0  0  0  0  0  0  0  0
   -7.1930    6.7500    8.7820 C   0  0  0  0  0  0  0  0  0  0  0  0
   -8.4240    6.1170    8.7580 C   0  0  0  0  0  0  0  0  0  0  0  0
   -9.3950    6.3570    9.7450 N   0  0  0  0  0  0  0  0  0  0  0  0
  -10.5620    5.6840    9.7600 C   0  0  0  0  0  0  0  0  0  0  0  0
  -11.5770    5.6820   10.5960 N   0  0  0  0  0  0  0  0  0  0  0  0
  -12.4690    4.7490   10.1080 N   0  0  0  0  0  0  0  0  0  0  0  0
  -12.0160    4.1880    8.9920 N   0  0  0  0  0  0  0  0  0  0  0  0
  -10.8400    4.7900    8.7610 N   0  0  0  0  0  0  0  0  0  0  0  0
   -9.9950    4.4790    7.6090 C   0  0  0  0  0  0  0  0  0  0  0  0
   -8.6630    5.2070    7.7200 C   0  0  0  0  0  0  0  0  0  0  0  0
  -10.7490    4.8610    6.3730 C   0  0  0  0  0  0  0  0  0  0  0  0
  -11.0350    6.2020    6.1170 C   0  0  0  0  0  0  0  0  0  0  0  0
  -11.7370    6.5580    4.9650 C   0  0  0  0  0  0  0  0  0  0  0  0
  -12.1550    5.5730    4.0710 C   0  0  0  0  0  0  0  0  0  0  0  0
  -11.8700    4.2310    4.3270 C   0  0  0  0  0  0  0  0  0  0  0  0
  -11.1660    3.8760    5.4790 C   0  0  0  0  0  0  0  0  0  0  0  0
  -12.0160    7.8660    4.7150 O   0  0  0  0  0  0  0  0  0  0  0  0
   -6.8990    7.6510    9.7710 O   0  0  0  0  0  0  0  0  0  0  0  0
   -6.7778    3.1514    5.3581 N   0  0  0  0  0  0  0  0  0  0  0  0
   -7.1037    2.3648    4.3104 C   0  0  0  0  0  0  0  0  0  0  0  0
   -5.9809    1.1740    3.5851 S   0  0  0  0  0  0  0  0  0  0  0  0
   -5.1352    2.4303    2.5705 C   0  0  0  0  0  0  0  0  0  0  0  0
   -4.1743    1.7743    1.6286 C   0  0  0  0  0  0  0  0  0  0  0  0
   -2.9364    1.9352    1.7931 O   0  0  0  0  0  0  0  0  0  0  0  0
   -4.6660    0.9479    0.5609 N   0  0  0  0  0  0  0  0  0  0  0  0
   -3.8996    0.5749   -0.5980 C   0  0  0  0  0  0  0  0  0  0  0  0
   -2.8899    1.4257   -1.1267 C   0  0  0  0  0  0  0  0  0  0  0  0
   -2.1978    1.0683   -2.2993 C   0  0  0  0  0  0  0  0  0  0  0  0
   -2.5419   -0.1275   -2.9208 C   0  0  0  0  0  0  0  0  0  0  0  0
   -3.5084   -0.9418   -2.4248 C   0  0  0  0  0  0  0  0  0  0  0  0
   -4.2187   -0.6253   -1.2694 C   0  0  0  0  0  0  0  0  0  0  0  0
   -3.6434   -2.0470   -3.2437 O   0  0  0  0  0  0  0  0  0  0  0  0
   -2.7046   -1.9170   -4.3220 C   0  0  0  0  0  0  0  0  0  0  0  0
   -2.0228   -0.6784   -4.0773 O   0  0  0  0  0  0  0  0  0  0  0  0
   -8.6443    2.7006    3.7214 S   0  0  0  0  0  0  0  0  0  0  0  0
   -8.9155    3.8943    4.8736 C   0  0  0  0  0  0  0  0  0  0  0  0
  -10.0665    4.7389    4.8933 N   0  0  0  0  0  0  0  0  0  0  0  0
  1  3  4  0
  1 14  4  0
  1  2  1  0
  3  4  4  0
  4  5  4  0
  5  6  4  0
  5 22  1  0
  6  7  1  0
  6 14  4  0
  7  8  1  0
  8  9  4  0
  8 12  4  0
  9 10  4  0
 10 11  4  0
 11 12  4  0
 12 13  1  0
 13 14  1  0
 13 15  1  6
 15 16  4  0
 15 20  4  0
 16 17  4  0
 17 18  4  0
 17 21  1  0
 18 19  4  0
 19 20  4  0
 23 24  4  0
 24 25  1  0
 25 26  1  0
 26 27  1  0
 27 28  2  0
 27 29  1  0
 29 30  1  0
 30 31  4  0
 31 32  4  0
 32 33  4  0
 33 34  4  0
 34 35  4  0
 34 36  1  0
 36 37  1  0
 37 38  1  0
 24 39  4  0
 39 40  4  0
 40 41  1  0
 35 30  4  0
 38 33  1  0
  2 23  4  0
  2 40  4  0
M  END
$$$$

     RDKit          3D

 41 47  0  0  0  0  0  0  0  0999 V2000
   -7.6410    4.9930    6.8080 C   0  0  0  0  0  0  0  0  0  1  0  0
   -7.7310    4.0530    5.7140 C   0  0  0  0  0  0  0  0  0  2  0  0
   -6.4520    5.6300    6.8680 N   0  0  0  0  0  0  0  0  0  0  0  0
   -6.2260    6.5240    7.8670 N   0  0  0  0  0  0  0  0  0  0  0  0
   -7.1930    6.7500    8.7820 C   0  0  0  0  0  0  0  0  0  0  0  0
   -8.4240    6.1170    8.7580 C   0  0  0  0  0  0  0  0  0  0  0  0
   -9.3950    6.3570    9.7450 N   0  0  0  0  0  0  0  0  0  0  0  0
  -10.5620    5.6840    9.7600 C   0  0  0  0  0  0  0  0  0  0  0  0
  -11.5770    5.6820   10.5960 N   0  0  0  0  0  0  0  0  0  0  0  0
  -12.4690    4.7490   10.1080 N   0  0  0  0  0  0  0  0  0  0  0  0
  -12.0160    4.1880    8.9920 N   0  0  0  0  0  0  0  0  0  0  0  0
  -10.8400    4.7900    8.7610 N   0  0  0  0  0  0  0  0  0  0  0  0
   -9.9950    4.4790    7.6090 C   0  0  0  0  0  0  0  0  0  0  0  0
   -8.6630    5.2070    7.7200 C   0  0  0  0  0  0  0  0  0  0  0  0
  -10.7490    4.8610    6.3730 C   0  0  0  0  0  0  0  0  0  0  0  0
  -11.0350    6.2020    6.1170 C   0  0  0  0  0  0  0  0  0  0  0  0
  -11.7370    6.5580    4.9650 C   0  0  0  0  0  0  0  0  0  0  0  0
  -12.1550    5.5730    4.0710 C   0  0  0  0  0  0  0  0  0  0  0  0
  -11.8700    4.2310    4.3270 C   0  0  0  0  0  0  0  0  0  0  0  0
  -11.1660    3.8760    5.4790 C   0  0  0  0  0  0  0  0  0  0  0  0
  -12.0160    7.8660    4.7150 O   0  0  0  0  0  0  0  0  0  0  0  0
   -6.8990    7.6510    9.7710 O   0  0  0  0  0  0  0  0  0  0  0  0
   -6.7735    3.1575    5.3450 N   0  0  0  0  0  0  0  0  0  0  0  0
   -7.1302    2.3256    4.3427 C   0  0  0  0  0  0  0  0  0  0  0  0
   -6.0381    1.0907    3.6444 S   0  0  0  0  0  0  0  0  0  0  0  0
   -6.5286   -0.2001    4.8362 C   0  0  0  0  0  0  0  0  0  0  0  0
   -6.1334   -1.5464    4.3082 C   0  0  0  0  0  0  0  0  0  0  0  0
   -6.6604   -1.9631    3.2378 O   0  0  0  0  0  0  0  0  0  0  0  0
   -5.2135   -2.3748    5.0435 N   0  0  0  0  0  0  0  0  0  0  0  0
   -4.6005   -3.5687    4.5173 C   0  0  0  0  0  0  0  0  0  0  0  0
   -4.2775   -3.6950    3.1381 C   0  0  0  0  0  0  0  0  0  0  0  0
   -3.6711   -4.8678    2.6466 C   0  0  0  0  0  0  0  0  0  0  0  0
   -3.3919   -5.8835    3.5544 C   0  0  0  0  0  0  0  0  0  0  0  0
   -3.6761   -5.7634    4.8756 C   0  0  0  0  0  0  0  0  0  0  0  0
   -4.2730   -4.6206    5.4029 C   0  0  0  0  0  0  0  0  0  0  0  0
   -3.2894   -6.9140    5.5360 O   0  0  0  0  0  0  0  0  0  0  0  0
   -2.7245   -7.8108    4.5679 C   0  0  0  0  0  0  0  0  0  0  0  0
   -2.8121   -7.1148    3.3170 O   0  0  0  0  0  0  0  0  0  0  0  0
   -8.7034    2.6025    3.8121 S   0  0  0  0  0  0  0  0  0  0  0  0
   -8.9464    3.8401    4.9227 C   0  0  0  0  0  0  0  0  0  0  0  0
  -10.1054    4.6742    4.9434 N   0  0  0  0  0  0  0  0  0  0  0  0
  1  3  4  0
  1 14  4  0
  1  2  1  0
  3  4  4  0
  4  5  4  0
  5  6  4  0
  5 22  1  0
  6  7  1  0
  6 14  4  0
  7  8  1  0
  8  9  4  0
  8 12  4  0
  9 10  4  0
 10 11  4  0
 11 12  4  0
 12 13  1  0
 13 14  1  0
 13 15  1  6
 15 16  4  0
 15 20  4  0
 16 17  4  0
 17 18  4  0
 17 21  1  0
 18 19  4  0
 19 20  4  0
 23 24  4  0
 24 25  1  0
 25 26  1  0
 26 27  1  0
 27 28  2  0
 27 29  1  0
 29 30  1  0
 30 31  4  0
 31 32  4  0
 32 33  4  0
 33 34  4  0
 34 35  4  0
 34 36  1  0
 36 37  1  0
 37 38  1  0
 24 39  4  0
 39 40  4  0
 40 41  1  0
 35 30  4  0
 38 33  1  0
  2 23  4  0
  2 40  4  0
M  END
$$$$

     RDKit          3D

 43 48  0  0  0  0  0  0  0  0999 V2000
   -7.6410    4.9930    6.8080 C   0  0  0  0  0  0  0  0  0  1  0  0
   -7.7310    4.0530    5.7140 C   0  0  0  0  0  0  0  0  0  2  0  0
   -6.4520    5.6300    6.8680 N   0  0  0  0  0  0  0  0  0  0  0  0
   -6.2260    6.5240    7.8670 N   0  0  0  0  0  0  0  0  0  0  0  0
   -7.1930    6.7500    8.7820 C   0  0  0  0  0  0  0  0  0  0  0  0
   -8.4240    6.1170    8.7580 C   0  0  0  0  0  0  0  0  0  0  0  0
   -9.3950    6.3570    9.7450 N   0  0  0  0  0  0  0  0  0  0  0  0
  -10.5620    5.6840    9.7600 C   0  0  0  0  0  0  0  0  0  0  0  0
  -11.5770    5.6820   10.5960 N   0  0  0  0  0  0  0  0  0  0  0  0
  -12.4690    4.7490   10.1080 N   0  0  0  0  0  0  0  0  0  0  0  0
  -12.0160    4.1880    8.9920 N   0  0  0  0  0  0  0  0  0  0  0  0
  -10.8400    4.7900    8.7610 N   0  0  0  0  0  0  0  0  0  0  0  0
   -9.9950    4.4790    7.6090 C   0  0  0  0  0  0  0  0  0  0  0  0
   -8.6630    5.2070    7.7200 C   0  0  0  0  0  0  0  0  0  0  0  0
  -10.7490    4.8610    6.3730 C   0  0  0  0  0  0  0  0  0  0  0  0
  -11.0350    6.2020    6.1170 C   0  0  0  0  0  0  0  0  0  0  0  0
  -11.7370    6.5580    4.9650 C   0  0  0  0  0  0  0  0  0  0  0  0
  -12.1550    5.5730    4.0710 C   0  0  0  0  0  0  0  0  0  0  0  0
  -11.8700    4.2310    4.3270 C   0  0  0  0  0  0  0  0  0  0  0  0
  -11.1660    3.8760    5.4790 C   0  0  0  0  0  0  0  0  0  0  0  0
  -12.0160    7.8660    4.7150 O   0  0  0  0  0  0  0  0  0  0  0  0
   -6.8990    7.6510    9.7710 O   0  0  0  0  0  0  0  0  0  0  0  0
   -6.7800    3.2102    5.2643 N   0  0  0  0  0  0  0  0  0  0  0  0
   -7.2504    2.4840    4.2610 N   0  0  0  0  0  0  0  0  0  0  0  0
   -8.5332    2.8486    4.0816 C   0  0  0  0  0  0  0  0  0  0  0  0
   -9.5816    2.1487    2.7999 S   0  0  0  0  0  0  0  0  0  0  0  0
  -10.0541    0.6651    3.7661 C   0  0  0  0  0  0  0  0  0  0  0  0
  -11.3544    0.8418    4.5090 C   0  0  0  0  0  0  0  0  0  0  0  0
  -11.9640    1.9437    4.4596 O   0  0  0  0  0  0  0  0  0  0  0  0
  -11.9645   -0.2508    5.2140 N   0  0  0  0  0  0  0  0  0  0  0  0
  -11.3152   -1.5066    5.4557 C   0  0  0  0  0  0  0  0  0  0  0  0
  -10.1047   -1.5634    6.1561 C   0  0  0  0  0  0  0  0  0  0  0  0
   -9.4947   -2.7935    6.4095 C   0  0  0  0  0  0  0  0  0  0  0  0
  -10.0848   -3.9903    5.9659 C   0  0  0  0  0  0  0  0  0  0  0  0
   -9.4612   -5.2554    6.2561 N   0  0  0  0  0  0  0  0  0  0  0  0
   -8.0471   -5.4844    6.1526 C   0  0  0  0  0  0  0  0  0  0  0  0
   -7.4739   -6.7986    6.5744 C   0  0  0  0  0  0  0  0  0  0  0  0
   -7.2910   -4.6137    5.6431 O   0  0  0  0  0  0  0  0  0  0  0  0
  -11.3240   -3.9387    5.2855 C   0  0  0  0  0  0  0  0  0  0  0  0
  -12.0061   -5.1965    4.8181 C   0  0  0  0  0  0  0  0  0  0  0  0
  -11.9345   -2.6946    5.0514 C   0  0  0  0  0  0  0  0  0  0  0  0
   -8.9003    3.8143    4.9485 N   0  0  0  0  0  0  0  0  0  0  0  0
  -10.1743    4.5303    5.0036 C   0  0  0  0  0  0  0  0  0  0  0  0
  1  3  4  0
  1 14  4  0
  1  2  1  0
  3  4  4  0
  4  5  4  0
  5  6  4  0
  5 22  1  0
  6  7  1  0
  6 14  4  0
  7  8  1  0
  8  9  4  0
  8 12  4  0
  9 10  4  0
 10 11  4  0
 11 12  4  0
 12 13  1  0
 13 14  1  0
 13 15  1  6
 15 16  4  0
 15 20  4  0
 16 17  4  0
 17 18  4  0
 17 21  1  0
 18 19  4  0
 19 20  4  0
 23 24  4  0
 24 25  4  0
 25 26  1  0
 26 27  1  0
 27 28  1  0
 28 29  2  0
 28 30  1  0
 30 31  1  0
 31 32  4  0
 32 33  4  0
 33 34  4  0
 34 35  1  0
 35 36  1  0
 36 37  1  0
 36 38  2  0
 34 39  4  0
 39 40  1  0
 39 41  4  0
 25 42  4  0
 42 43  1  0
 41 31  4  0
  2 23  4  0
  2 42  4  0
M  END
$$$$

     RDKit          3D

 36 41  0  0  0  0  0  0  0  0999 V2000
   -7.6410    4.9930    6.8080 C   0  0  0  0  0  0  0  0  0  1  0  0
   -7.7310    4.0530    5.7140 C   0  0  0  0  0  0  0  0  0  2  0  0
   -6.4520    5.6300    6.8680 N   0  0  0  0  0  0  0  0  0  0  0  0
   -6.2260    6.5240    7.8670 N   0  0  0  0  0  0  0  0  0  0  0  0
   -7.1930    6.7500    8.7820 C   0  0  0  0  0  0  0  0  0  0  0  0
   -8.4240    6.1170    8.7580 C   0  0  0  0  0  0  0  0  0  0  0  0
   -9.3950    6.3570    9.7450 N   0  0  0  0  0  0  0  0  0  0  0  0
  -10.5620    5.6840    9.7600 C   0  0  0  0  0  0  0  0  0  0  0  0
  -11.5770    5.6820   10.5960 N   0  0  0  0  0  0  0  0  0  0  0  0
  -12.4690    4.7490   10.1080 N   0  0  0  0  0  0  0  0  0  0  0  0
  -12.0160    4.1880    8.9920 N   0  0  0  0  0  0  0  0  0  0  0  0
  -10.8400    4.7900    8.7610 N   0  0  0  0  0  0  0  0  0  0  0  0
   -9.9950    4.4790    7.6090 C   0  0  0  0  0  0  0  0  0  0  0  0
   -8.6630    5.2070    7.7200 C   0  0  0  0  0  0  0  0  0  0  0  0
  -10.7490    4.8610    6.3730 C   0  0  0  0  0  0  0  0  0  0  0  0
  -11.0350    6.2020    6.1170 C   0  0  0  0  0  0  0  0  0  0  0  0
  -11.7370    6.5580    4.9650 C   0  0  0  0  0  0  0  0  0  0  0  0
  -12.1550    5.5730    4.0710 C   0  0  0  0  0  0  0  0  0  0  0  0
  -11.8700    4.2310    4.3270 C   0  0  0  0  0  0  0  0  0  0  0  0
  -11.1660    3.8760    5.4790 C   0  0  0  0  0  0  0  0  0  0  0  0
  -12.0160    7.8660    4.7150 O   0  0  0  0  0  0  0  0  0  0  0  0
   -6.8990    7.6510    9.7710 O   0  0  0  0  0  0  0  0  0  0  0  0
   -6.7725    3.3152    5.1379 N   0  0  0  0  0  0  0  0  0  0  0  0
   -7.2791    2.5215    4.2063 N   0  0  0  0  0  0  0  0  0  0  0  0
   -8.6068    2.7358    4.1919 C   0  0  0  0  0  0  0  0  0  0  0  0
   -9.7286    1.8796    3.0840 S   0  0  0  0  0  0  0  0  0  0  0  0
   -9.5419    3.1144    1.7549 C   0  0  0  0  0  0  0  0  0  0  0  0
  -10.4021    2.7377    0.5820 C   0  0  0  0  0  0  0  0  0  0  0  0
  -11.5077    3.5276    0.2230 C   0  0  0  0  0  0  0  0  0  0  0  0
  -12.3004    3.1729   -0.8732 C   0  0  0  0  0  0  0  0  0  0  0  0
  -11.9947    2.0315   -1.6193 C   0  0  0  0  0  0  0  0  0  0  0  0
  -10.8945    1.2424   -1.2716 C   0  0  0  0  0  0  0  0  0  0  0  0
  -10.5976    0.1365   -1.9974 F   0  0  0  0  0  0  0  0  0  0  0  0
  -10.0992    1.5937   -0.1759 C   0  0  0  0  0  0  0  0  0  0  0  0
   -8.9714    3.6651    5.0978 N   0  0  0  0  0  0  0  0  0  0  0  0
  -10.3162    4.1783    5.3548 C   0  0  0  0  0  0  0  0  0  0  0  0
  1  3  4  0
  1 14  4  0
  1  2  1  0
  3  4  4  0
  4  5  4  0
  5  6  4  0
  5 22  1  0
  6  7  1  0
  6 14  4  0
  7  8  1  0
  8  9  4  0
  8 12  4  0
  9 10  4  0
 10 11  4  0
 11 12  4  0
 12 13  1  0
 13 14  1  0
 13 15  1  6
 15 16  4  0
 15 20  4  0
 16 17  4  0
 17 18  4  0
 17 21  1  0
 18 19  4  0
 19 20  4  0
 23 24  4  0
 24 25  4  0
 25 26  1  0
 26 27  1  0
 27 28  1  0
 28 29  4  0
 29 30  4  0
 30 31  4  0
 31 32  4  0
 32 33  1  0
 32 34  4  0
 25 35  4  0
 35 36  1  0
 34 28  4  0
  2 23  4  0
  2 35  4  0
M  END
$$$$

     RDKit          3D

 36 41  0  0  0  0  0  0  0  0999 V2000
   -7.6410    4.9930    6.8080 C   0  0  0  0  0  0  0  0  0  1  0  0
   -7.7310    4.0530    5.7140 C   0  0  0  0  0  0  0  0  0  2  0  0
   -6.4520    5.6300    6.8680 N   0  0  0  0  0  0  0  0  0  0  0  0
   -6.2260    6.5240    7.8670 N   0  0  0  0  0  0  0  0  0  0  0  0
   -7.1930    6.7500    8.7820 C   0  0  0  0  0  0  0  0  0  0  0  0
   -8.4240    6.1170    8.7580 C   0  0  0  0  0  0  0  0  0  0  0  0
   -9.3950    6.3570    9.7450 N   0  0  0  0  0  0  0  0  0  0  0  0
  -10.5620    5.6840    9.7600 C   0  0  0  0  0  0  0  0  0  0  0  0
  -11.5770    5.6820   10.5960 N   0  0  0  0  0  0  0  0  0  0  0  0
  -12.4690    4.7490   10.1080 N   0  0  0  0  0  0  0  0  0  0  0  0
  -12.0160    4.1880    8.9920 N   0  0  0  0  0  0  0  0  0  0  0  0
  -10.8400    4.7900    8.7610 N   0  0  0  0  0  0  0  0  0  0  0  0
   -9.9950    4.4790    7.6090 C   0  0  0  0  0  0  0  0  0  0  0  0
   -8.6630    5.2070    7.7200 C   0  0  0  0  0  0  0  0  0  0  0  0
  -10.7490    4.8610    6.3730 C   0  0  0  0  0  0  0  0  0  0  0  0
  -11.0350    6.2020    6.1170 C   0  0  0  0  0  0  0  0  0  0  0  0
  -11.7370    6.5580    4.9650 C   0  0  0  0  0  0  0  0  0  0  0  0
  -12.1550    5.5730    4.0710 C   0  0  0  0  0  0  0  0  0  0  0  0
  -11.8700    4.2310    4.3270 C   0  0  0  0  0  0  0  0  0  0  0  0
  -11.1660    3.8760    5.4790 C   0  0  0  0  0  0  0  0  0  0  0  0
  -12.0160    7.8660    4.7150 O   0  0  0  0  0  0  0  0  0  0  0  0
   -6.8990    7.6510    9.7710 O   0  0  0  0  0  0  0  0  0  0  0  0
   -6.7726    3.3151    5.1377 N   0  0  0  0  0  0  0  0  0  0  0  0
   -7.2793    2.5214    4.2063 N   0  0  0  0  0  0  0  0  0  0  0  0
   -8.6070    2.7355    4.1922 C   0  0  0  0  0  0  0  0  0  0  0  0
   -9.7294    1.8799    3.0848 S   0  0  0  0  0  0  0  0  0  0  0  0
   -9.5496    3.1197    1.7594 C   0  0  0  0  0  0  0  0  0  0  0  0
  -10.4903    2.8024    0.6316 C   0  0  0  0  0  0  0  0  0  0  0  0
   -9.9967    2.4023   -0.6218 C   0  0  0  0  0  0  0  0  0  0  0  0
  -10.8799    2.1153   -1.6674 C   0  0  0  0  0  0  0  0  0  0  0  0
  -12.2590    2.2283   -1.4713 C   0  0  0  0  0  0  0  0  0  0  0  0
  -12.7582    2.6300   -0.2289 C   0  0  0  0  0  0  0  0  0  0  0  0
  -14.0962    2.7415   -0.0405 F   0  0  0  0  0  0  0  0  0  0  0  0
  -11.8783    2.9179    0.8194 C   0  0  0  0  0  0  0  0  0  0  0  0
   -8.9715    3.6649    5.0980 N   0  0  0  0  0  0  0  0  0  0  0  0
  -10.3161    4.1792    5.3534 C   0  0  0  0  0  0  0  0  0  0  0  0
  1  3  4  0
  1 14  4  0
  1  2  1  0
  3  4  4  0
  4  5  4  0
  5  6  4  0
  5 22  1  0
  6  7  1  0
  6 14  4  0
  7  8  1  0
  8  9  4  0
  8 12  4  0
  9 10  4  0
 10 11  4  0
 11 12  4  0
 12 13  1  0
 13 14  1  0
 13 15  1  6
 15 16  4  0
 15 20  4  0
 16 17  4  0
 17 18  4  0
 17 21  1  0
 18 19  4  0
 19 20  4  0
 23 24  4  0
 24 25  4  0
 25 26  1  0
 26 27  1  0
 27 28  1  0
 28 29  4  0
 29 30  4  0
 30 31  4  0
 31 32  4  0
 32 33  1  0
 32 34  4  0
 25 35  4  0
 35 36  1  0
 34 28  4  0
  2 23  4  0
  2 35  4  0
M  END
$$$$

     RDKit          3D

 36 41  0  0  0  0  0  0  0  0999 V2000
   -7.6410    4.9930    6.8080 C   0  0  0  0  0  0  0  0  0  1  0  0
   -7.7310    4.0530    5.7140 C   0  0  0  0  0  0  0  0  0  2  0  0
   -6.4520    5.6300    6.8680 N   0  0  0  0  0  0  0  0  0  0  0  0
   -6.2260    6.5240    7.8670 N   0  0  0  0  0  0  0  0  0  0  0  0
   -7.1930    6.7500    8.7820 C   0  0  0  0  0  0  0  0  0  0  0  0
   -8.4240    6.1170    8.7580 C   0  0  0  0  0  0  0  0  0  0  0  0
   -9.3950    6.3570    9.7450 N   0  0  0  0  0  0  0  0  0  0  0  0
  -10.5620    5.6840    9.7600 C   0  0  0  0  0  0  0  0  0  0  0  0
  -11.5770    5.6820   10.5960 N   0  0  0  0  0  0  0  0  0  0  0  0
  -12.4690    4.7490   10.1080 N   0  0  0  0  0  0  0  0  0  0  0  0
  -12.0160    4.1880    8.9920 N   0  0  0  0  0  0  0  0  0  0  0  0
  -10.8400    4.7900    8.7610 N   0  0  0  0  0  0  0  0  0  0  0  0
   -9.9950    4.4790    7.6090 C   0  0  0  0  0  0  0  0  0  0  0  0
   -8.6630    5.2070    7.7200 C   0  0  0  0  0  0  0  0  0  0  0  0
  -10.7490    4.8610    6.3730 C   0  0  0  0  0  0  0  0  0  0  0  0
  -11.0350    6.2020    6.1170 C   0  0  0  0  0  0  0  0  0  0  0  0
  -11.7370    6.5580    4.9650 C   0  0  0  0  0  0  0  0  0  0  0  0
  -12.1550    5.5730    4.0710 C   0  0  0  0  0  0  0  0  0  0  0  0
  -11.8700    4.2310    4.3270 C   0  0  0  0  0  0  0  0  0  0  0  0
  -11.1660    3.8760    5.4790 C   0  0  0  0  0  0  0  0  0  0  0  0
  -12.0160    7.8660    4.7150 O   0  0  0  0  0  0  0  0  0  0  0  0
   -6.8990    7.6510    9.7710 O   0  0  0  0  0  0  0  0  0  0  0  0
   -6.7738    3.3091    5.1431 N   0  0  0  0  0  0  0  0  0  0  0  0
   -7.2817    2.5111    4.2157 N   0  0  0  0  0  0  0  0  0  0  0  0
   -8.6090    2.7281    4.1998 C   0  0  0  0  0  0  0  0  0  0  0  0
   -9.7348    1.8600    3.1055 S   0  0  0  0  0  0  0  0  0  0  0  0
  -10.0703    0.5382    4.3156 C   0  0  0  0  0  0  0  0  0  0  0  0
  -11.0382   -0.4539    3.7349 C   0  0  0  0  0  0  0  0  0  0  0  0
  -10.6491   -1.2724    2.6610 C   0  0  0  0  0  0  0  0  0  0  0  0
  -11.5449   -2.2004    2.1212 C   0  0  0  0  0  0  0  0  0  0  0  0
  -12.8327   -2.3204    2.6502 C   0  0  0  0  0  0  0  0  0  0  0  0
  -13.2271   -1.5130    3.7211 C   0  0  0  0  0  0  0  0  0  0  0  0
  -14.4766   -1.6312    4.2339 F   0  0  0  0  0  0  0  0  0  0  0  0
  -12.3338   -0.5832    4.2641 C   0  0  0  0  0  0  0  0  0  0  0  0
   -8.9713    3.6660    5.0974 N   0  0  0  0  0  0  0  0  0  0  0  0
  -10.3156    4.1824    5.3487 C   0  0  0  0  0  0  0  0  0  0  0  0
  1  3  4  0
  1 14  4  0
  1  2  1  0
  3  4  4  0
  4  5  4  0
  5  6  4  0
  5 22  1  0
  6  7  1  0
  6 14  4  0
  7  8  1  0
  8  9  4  0
  8 12  4  0
  9 10  4  0
 10 11  4  0
 11 12  4  0
 12 13  1  0
 13 14  1  0
 13 15  1  6
 15 16  4  0
 15 20  4  0
 16 17  4  0
 17 18  4  0
 17 21  1  0
 18 19  4  0
 19 20  4  0
 23 24  4  0
 24 25  4  0
 25 26  1  0
 26 27  1  0
 27 28  1  0
 28 29  4  0
 29 30  4  0
 30 31  4  0
 31 32  4  0
 32 33  1  0
 32 34  4  0
 25 35  4  0
 35 36  1  0
 34 28  4  0
  2 23  4  0
  2 35  4  0
M  END
$$$$

     RDKit          3D

 36 41  0  0  0  0  0  0  0  0999 V2000
   -7.6410    4.9930    6.8080 C   0  0  0  0  0  0  0  0  0  1  0  0
   -7.7310    4.0530    5.7140 C   0  0  0  0  0  0  0  0  0  2  0  0
   -6.4520    5.6300    6.8680 N   0  0  0  0  0  0  0  0  0  0  0  0
   -6.2260    6.5240    7.8670 N   0  0  0  0  0  0  0  0  0  0  0  0
   -7.1930    6.7500    8.7820 C   0  0  0  0  0  0  0  0  0  0  0  0
   -8.4240    6.1170    8.7580 C   0  0  0  0  0  0  0  0  0  0  0  0
   -9.3950    6.3570    9.7450 N   0  0  0  0  0  0  0  0  0  0  0  0
  -10.5620    5.6840    9.7600 C   0  0  0  0  0  0  0  0  0  0  0  0
  -11.5770    5.6820   10.5960 N   0  0  0  0  0  0  0  0  0  0  0  0
  -12.4690    4.7490   10.1080 N   0  0  0  0  0  0  0  0  0  0  0  0
  -12.0160    4.1880    8.9920 N   0  0  0  0  0  0  0  0  0  0  0  0
  -10.8400    4.7900    8.7610 N   0  0  0  0  0  0  0  0  0  0  0  0
   -9.9950    4.4790    7.6090 C   0  0  0  0  0  0  0  0  0  0  0  0
   -8.6630    5.2070    7.7200 C   0  0  0  0  0  0  0  0  0  0  0  0
  -10.7490    4.8610    6.3730 C   0  0  0  0  0  0  0  0  0  0  0  0
  -11.0350    6.2020    6.1170 C   0  0  0  0  0  0  0  0  0  0  0  0
  -11.7370    6.5580    4.9650 C   0  0  0  0  0  0  0  0  0  0  0  0
  -12.1550    5.5730    4.0710 C   0  0  0  0  0  0  0  0  0  0  0  0
  -11.8700    4.2310    4.3270 C   0  0  0  0  0  0  0  0  0  0  0  0
  -11.1660    3.8760    5.4790 C   0  0  0  0  0  0  0  0  0  0  0  0
  -12.0160    7.8660    4.7150 O   0  0  0  0  0  0  0  0  0  0  0  0
   -6.8990    7.6510    9.7710 O   0  0  0  0  0  0  0  0  0  0  0  0
   -6.7741    3.3066    5.1462 N   0  0  0  0  0  0  0  0  0  0  0  0
   -7.2824    2.5055    4.2220 N   0  0  0  0  0  0  0  0  0  0  0  0
   -8.6097    2.7231    4.2048 C   0  0  0  0  0  0  0  0  0  0  0  0
   -9.7384    1.8332    3.1273 S   0  0  0  0  0  0  0  0  0  0  0  0
  -10.1497    0.5598    4.3716 C   0  0  0  0  0  0  0  0  0  0  0  0
   -8.9599   -0.3123    4.6695 C   0  0  0  0  0  0  0  0  0  0  0  0
   -8.4340   -1.1538    3.6751 C   0  0  0  0  0  0  0  0  0  0  0  0
   -7.3220   -1.9563    3.9474 C   0  0  0  0  0  0  0  0  0  0  0  0
   -6.7287   -1.9259    5.2124 C   0  0  0  0  0  0  0  0  0  0  0  0
   -7.2478   -1.0939    6.2086 C   0  0  0  0  0  0  0  0  0  0  0  0
   -6.6699   -1.0634    7.4347 F   0  0  0  0  0  0  0  0  0  0  0  0
   -8.3612   -0.2909    5.9409 C   0  0  0  0  0  0  0  0  0  0  0  0
   -8.9712    3.6655    5.0977 N   0  0  0  0  0  0  0  0  0  0  0  0
  -10.3156    4.1812    5.3497 C   0  0  0  0  0  0  0  0  0  0  0  0
  1  3  4  0
  1 14  4  0
  1  2  1  0
  3  4  4  0
  4  5  4  0
  5  6  4  0
  5 22  1  0
  6  7  1  0
  6 14  4  0
  7  8  1  0
  8  9  4  0
  8 12  4  0
  9 10  4  0
 10 11  4  0
 11 12  4  0
 12 13  1  0
 13 14  1  0
 13 15  1  6
 15 16  4  0
 15 20  4  0
 16 17  4  0
 17 18  4  0
 17 21  1  0
 18 19  4  0
 19 20  4  0
 23 24  4  0
 24 25  4  0
 25 26  1  0
 26 27  1  0
 27 28  1  0
 28 29  4  0
 29 30  4  0
 30 31  4  0
 31 32  4  0
 32 33  1  0
 32 34  4  0
 25 35  4  0
 35 36  1  0
 34 28  4  0
  2 23  4  0
  2 35  4  0
M  END
$$$$

     RDKit          3D

 32 36  0  0  0  0  0  0  0  0999 V2000
   -7.6410    4.9930    6.8080 C   0  0  0  0  0  0  0  0  0  1  0  0
   -7.7310    4.0530    5.7140 C   0  0  0  0  0  0  0  0  0  2  0  0
   -6.4520    5.6300    6.8680 N   0  0  0  0  0  0  0  0  0  0  0  0
   -6.2260    6.5240    7.8670 N   0  0  0  0  0  0  0  0  0  0  0  0
   -7.1930    6.7500    8.7820 C   0  0  0  0  0  0  0  0  0  0  0  0
   -8.4240    6.1170    8.7580 C   0  0  0  0  0  0  0  0  0  0  0  0
   -9.3950    6.3570    9.7450 N   0  0  0  0  0  0  0  0  0  0  0  0
  -10.5620    5.6840    9.7600 C   0  0  0  0  0  0  0  0  0  0  0  0
  -11.5770    5.6820   10.5960 N   0  0  0  0  0  0  0  0  0  0  0  0
  -12.4690    4.7490   10.1080 N   0  0  0  0  0  0  0  0  0  0  0  0
  -12.0160    4.1880    8.9920 N   0  0  0  0  0  0  0  0  0  0  0  0
  -10.8400    4.7900    8.7610 N   0  0  0  0  0  0  0  0  0  0  0  0
   -9.9950    4.4790    7.6090 C   0  0  0  0  0  0  0  0  0  0  0  0
   -8.6630    5.2070    7.7200 C   0  0  0  0  0  0  0  0  0  0  0  0
  -10.7490    4.8610    6.3730 C   0  0  0  0  0  0  0  0  0  0  0  0
  -11.0350    6.2020    6.1170 C   0  0  0  0  0  0  0  0  0  0  0  0
  -11.7370    6.5580    4.9650 C   0  0  0  0  0  0  0  0  0  0  0  0
  -12.1550    5.5730    4.0710 C   0  0  0  0  0  0  0  0  0  0  0  0
  -11.8700    4.2310    4.3270 C   0  0  0  0  0  0  0  0  0  0  0  0
  -11.1660    3.8760    5.4790 C   0  0  0  0  0  0  0  0  0  0  0  0
  -12.0160    7.8660    4.7150 O   0  0  0  0  0  0  0  0  0  0  0  0
   -6.8990    7.6510    9.7710 O   0  0  0  0  0  0  0  0  0  0  0  0
   -7.1061    2.7720    5.7486 C   0  0  0  0  0  0  0  0  0  0  0  0
   -7.2850    1.8020    4.7603 C   0  0  0  0  0  0  0  0  0  0  0  0
   -8.1665    2.0336    3.7034 C   0  0  0  0  0  0  0  0  0  0  0  0
   -8.8701    3.2376    3.6288 C   0  0  0  0  0  0  0  0  0  0  0  0
   -8.6843    4.2306    4.6022 C   0  0  0  0  0  0  0  0  0  0  0  0
   -9.4693    5.4784    4.5028 C   0  0  0  0  0  0  0  0  0  0  0  0
  -10.7129    5.4320    4.6917 O   0  0  0  0  0  0  0  0  0  0  0  0
   -8.8756    6.7135    4.2158 O   0  0  0  0  0  0  0  0  0  0  0  0
   -7.6203    6.8617    3.5551 C   0  0  0  0  0  0  0  0  0  0  0  0
   -7.7708    6.6012    2.0619 C   0  0  0  0  0  0  0  0  0  0  0  0
  1  3  4  0
  1 14  4  0
  1  2  1  0
  3  4  4  0
  4  5  4  0
  5  6  4  0
  5 22  1  0
  6  7  1  0
  6 14  4  0
  7  8  1  0
  8  9  4  0
  8 12  4  0
  9 10  4  0
 10 11  4  0
 11 12  4  0
 12 13  1  0
 13 14  1  0
 13 15  1  6
 15 16  4  0
 15 20  4  0
 16 17  4  0
 17 18  4  0
 17 21  1  0
 18 19  4  0
 19 20  4  0
 23 24  4  0
 24 25  4  0
 25 26  4  0
 26 27  4  0
 27 28  1  0
 28 29  2  0
 28 30  1  0
 30 31  1  0
 31 32  1  0
  2 23  4  0
  2 27  4  0
M  END
$$$$

     RDKit          3D

 29 33  0  0  0  0  0  0  0  0999 V2000
   -7.6410    4.9930    6.8080 C   0  0  0  0  0  0  0  0  0  1  0  0
   -7.7310    4.0530    5.7140 C   0  0  0  0  0  0  0  0  0  2  0  0
   -6.4520    5.6300    6.8680 N   0  0  0  0  0  0  0  0  0  0  0  0
   -6.2260    6.5240    7.8670 N   0  0  0  0  0  0  0  0  0  0  0  0
   -7.1930    6.7500    8.7820 C   0  0  0  0  0  0  0  0  0  0  0  0
   -8.4240    6.1170    8.7580 C   0  0  0  0  0  0  0  0  0  0  0  0
   -9.3950    6.3570    9.7450 N   0  0  0  0  0  0  0  0  0  0  0  0
  -10.5620    5.6840    9.7600 C   0  0  0  0  0  0  0  0  0  0  0  0
  -11.5770    5.6820   10.5960 N   0  0  0  0  0  0  0  0  0  0  0  0
  -12.4690    4.7490   10.1080 N   0  0  0  0  0  0  0  0  0  0  0  0
  -12.0160    4.1880    8.9920 N   0  0  0  0  0  0  0  0  0  0  0  0
  -10.8400    4.7900    8.7610 N   0  0  0  0  0  0  0  0  0  0  0  0
   -9.9950    4.4790    7.6090 C   0  0  0  0  0  0  0  0  0  0  0  0
   -8.6630    5.2070    7.7200 C   0  0  0  0  0  0  0  0  0  0  0  0
  -10.7490    4.8610    6.3730 C   0  0  0  0  0  0  0  0  0  0  0  0
  -11.0350    6.2020    6.1170 C   0  0  0  0  0  0  0  0  0  0  0  0
  -11.7370    6.5580    4.9650 C   0  0  0  0  0  0  0  0  0  0  0  0
  -12.1550    5.5730    4.0710 C   0  0  0  0  0  0  0  0  0  0  0  0
  -11.8700    4.2310    4.3270 C   0  0  0  0  0  0  0  0  0  0  0  0
  -11.1660    3.8760    5.4790 C   0  0  0  0  0  0  0  0  0  0  0  0
  -12.0160    7.8660    4.7150 O   0  0  0  0  0  0  0  0  0  0  0  0
   -6.8990    7.6510    9.7710 O   0  0  0  0  0  0  0  0  0  0  0  0
   -6.7591    3.1317    5.3292 C   0  0  0  0  0  0  0  0  0  0  0  0
   -6.9445    2.1770    4.3263 C   0  0  0  0  0  0  0  0  0  0  0  0
   -8.1742    2.0810    3.6653 C   0  0  0  0  0  0  0  0  0  0  0  0
   -8.3717    1.1299    2.6668 O   0  0  0  0  0  0  0  0  0  0  0  0
   -9.2144    2.9500    4.0061 C   0  0  0  0  0  0  0  0  0  0  0  0
   -9.0351    3.9165    5.0072 C   0  0  0  0  0  0  0  0  0  0  0  0
  -10.0669    4.8081    5.2985 O   0  0  0  0  0  0  0  0  0  0  0  0
  1  3  4  0
  1 14  4  0
  1  2  1  0
  3  4  4  0
  4  5  4  0
  5  6  4  0
  5 22  1  0
  6  7  1  0
  6 14  4  0
  7  8  1  0
  8  9  4  0
  8 12  4  0
  9 10  4  0
 10 11  4  0
 11 12  4  0
 12 13  1  0
 13 14  1  0
 13 15  1  6
 15 16  4  0
 15 20  4  0
 16 17  4  0
 17 18  4  0
 17 21  1  0
 18 19  4  0
 19 20  4  0
 23 24  4  0
 24 25  4  0
 25 26  1  0
 25 27  4  0
 27 28  4  0
 28 29  1  0
  2 23  4  0
  2 28  4  0
M  END
$$$$

     RDKit          3D

 41 46  0  0  0  0  0  0  0  0999 V2000
   -7.6410    4.9930    6.8080 C   0  0  0  0  0  0  0  0  0  1  0  0
   -7.7310    4.0530    5.7140 C   0  0  0  0  0  0  0  0  0  2  0  0
   -6.4520    5.6300    6.8680 N   0  0  0  0  0  0  0  0  0  0  0  0
   -6.2260    6.5240    7.8670 N   0  0  0  0  0  0  0  0  0  0  0  0
   -7.1930    6.7500    8.7820 C   0  0  0  0  0  0  0  0  0  0  0  0
   -8.4240    6.1170    8.7580 C   0  0  0  0  0  0  0  0  0  0  0  0
   -9.3950    6.3570    9.7450 N   0  0  0  0  0  0  0  0  0  0  0  0
  -10.5620    5.6840    9.7600 C   0  0  0  0  0  0  0  0  0  0  0  0
  -11.5770    5.6820   10.5960 N   0  0  0  0  0  0  0  0  0  0  0  0
  -12.4690    4.7490   10.1080 N   0  0  0  0  0  0  0  0  0  0  0  0
  -12.0160    4.1880    8.9920 N   0  0  0  0  0  0  0  0  0  0  0  0
  -10.8400    4.7900    8.7610 N   0  0  0  0  0  0  0  0  0  0  0  0
   -9.9950    4.4790    7.6090 C   0  0  0  0  0  0  0  0  0  0  0  0
   -8.6630    5.2070    7.7200 C   0  0  0  0  0  0  0  0  0  0  0  0
  -10.7490    4.8610    6.3730 C   0  0  0  0  0  0  0  0  0  0  0  0
  -11.0350    6.2020    6.1170 C   0  0  0  0  0  0  0  0  0  0  0  0
  -11.7370    6.5580    4.9650 C   0  0  0  0  0  0  0  0  0  0  0  0
  -12.1550    5.5730    4.0710 C   0  0  0  0  0  0  0  0  0  0  0  0
  -11.8700    4.2310    4.3270 C   0  0  0  0  0  0  0  0  0  0  0  0
  -11.1660    3.8760    5.4790 C   0  0  0  0  0  0  0  0  0  0  0  0
  -12.0160    7.8660    4.7150 O   0  0  0  0  0  0  0  0  0  0  0  0
   -6.8990    7.6510    9.7710 O   0  0  0  0  0  0  0  0  0  0  0  0
   -6.8182    3.1632    5.2903 N   0  0  0  0  0  0  0  0  0  0  0  0
   -7.2972    2.4461    4.2859 N   0  0  0  0  0  0  0  0  0  0  0  0
   -8.5581    2.8635    4.0740 C   0  0  0  0  0  0  0  0  0  0  0  0
   -9.6098    2.1781    2.7901 S   0  0  0  0  0  0  0  0  0  0  0  0
   -8.9859    3.3085    1.5053 C   0  0  0  0  0  0  0  0  0  0  0  0
   -9.6587    3.0093    0.2025 C   0  0  0  0  0  0  0  0  0  0  0  0
   -9.4644    1.8908   -0.3468 O   0  0  0  0  0  0  0  0  0  0  0  0
  -10.4740    4.0051   -0.4366 N   0  0  0  0  0  0  0  0  0  0  0  0
  -11.3215    3.7429   -1.5684 C   0  0  0  0  0  0  0  0  0  0  0  0
  -12.0051    2.5253   -1.7032 C   0  0  0  0  0  0  0  0  0  0  0  0
  -12.8342    2.2989   -2.8027 C   0  0  0  0  0  0  0  0  0  0  0  0
  -13.0053    3.2864   -3.7860 C   0  0  0  0  0  0  0  0  0  0  0  0
  -13.9100    3.0104   -4.9581 C   0  0  0  0  0  0  0  0  0  0  0  0
  -12.3548    4.5341   -3.6353 C   0  0  0  0  0  0  0  0  0  0  0  0
  -12.5163    5.6295   -4.6567 C   0  0  0  0  0  0  0  0  0  0  0  0
  -11.5162    4.7459   -2.5273 C   0  0  0  0  0  0  0  0  0  0  0  0
   -8.9142    3.8398    4.9364 N   0  0  0  0  0  0  0  0  0  0  0  0
  -10.1563    4.6231    4.9354 C   0  0  0  0  0  0  0  0  0  0  0  0
   -9.9010    6.0552    4.4734 C   0  0  0  0  0  0  0  0  0  0  0  0
  1  3  4  0
  1 14  4  0
  1  2  1  0
  3  4  4  0
  4  5  4  0
  5  6  4  0
  5 22  1  0
  6  7  1  0
  6 14  4  0
  7  8  1  0
  8  9  4  0
  8 12  4  0
  9 10  4  0
 10 11  4  0
 11 12  4  0
 12 13  1  0
 13 14  1  0
 13 15  1  6
 15 16  4  0
 15 20  4  0
 16 17  4  0
 17 18  4  0
 17 21  1  0
 18 19  4  0
 19 20  4  0
 23 24  4  0
 24 25  4  0
 25 26  1  0
 26 27  1  0
 27 28  1  0
 28 29  2  0
 28 30  1  0
 30 31  1  0
 31 32  4  0
 32 33  4  0
 33 34  4  0
 34 35  1  0
 34 36  4  0
 36 37  1  0
 36 38  4  0
 25 39  4  0
 39 40  1  0
 40 41  1  0
 38 31  4  0
  2 23  4  0
  2 39  4  0
M  END
$$$$

     RDKit          3D

 41 46  0  0  0  0  0  0  0  0999 V2000
   -7.6410    4.9930    6.8080 C   0  0  0  0  0  0  0  0  0  1  0  0
   -7.7310    4.0530    5.7140 C   0  0  0  0  0  0  0  0  0  2  0  0
   -6.4520    5.6300    6.8680 N   0  0  0  0  0  0  0  0  0  0  0  0
   -6.2260    6.5240    7.8670 N   0  0  0  0  0  0  0  0  0  0  0  0
   -7.1930    6.7500    8.7820 C   0  0  0  0  0  0  0  0  0  0  0  0
   -8.4240    6.1170    8.7580 C   0  0  0  0  0  0  0  0  0  0  0  0
   -9.3950    6.3570    9.7450 N   0  0  0  0  0  0  0  0  0  0  0  0
  -10.5620    5.6840    9.7600 C   0  0  0  0  0  0  0  0  0  0  0  0
  -11.5770    5.6820   10.5960 N   0  0  0  0  0  0  0  0  0  0  0  0
  -12.4690    4.7490   10.1080 N   0  0  0  0  0  0  0  0  0  0  0  0
  -12.0160    4.1880    8.9920 N   0  0  0  0  0  0  0  0  0  0  0  0
  -10.8400    4.7900    8.7610 N   0  0  0  0  0  0  0  0  0  0  0  0
   -9.9950    4.4790    7.6090 C   0  0  0  0  0  0  0  0  0  0  0  0
   -8.6630    5.2070    7.7200 C   0  0  0  0  0  0  0  0  0  0  0  0
  -10.7490    4.8610    6.3730 C   0  0  0  0  0  0  0  0  0  0  0  0
  -11.0350    6.2020    6.1170 C   0  0  0  0  0  0  0  0  0  0  0  0
  -11.7370    6.5580    4.9650 C   0  0  0  0  0  0  0  0  0  0  0  0
  -12.1550    5.5730    4.0710 C   0  0  0  0  0  0  0  0  0  0  0  0
  -11.8700    4.2310    4.3270 C   0  0  0  0  0  0  0  0  0  0  0  0
  -11.1660    3.8760    5.4790 C   0  0  0  0  0  0  0  0  0  0  0  0
  -12.0160    7.8660    4.7150 O   0  0  0  0  0  0  0  0  0  0  0  0
   -6.8990    7.6510    9.7710 O   0  0  0  0  0  0  0  0  0  0  0  0
   -6.8212    3.1570    5.2955 N   0  0  0  0  0  0  0  0  0  0  0  0
   -7.3018    2.4375    4.2934 N   0  0  0  0  0  0  0  0  0  0  0  0
   -8.5606    2.8594    4.0774 C   0  0  0  0  0  0  0  0  0  0  0  0
   -9.6172    2.1655    2.8021 S   0  0  0  0  0  0  0  0  0  0  0  0
   -8.9879    3.2738    1.5011 C   0  0  0  0  0  0  0  0  0  0  0  0
   -9.6916    2.9838    0.2128 C   0  0  0  0  0  0  0  0  0  0  0  0
  -10.9307    3.2021    0.1273 O   0  0  0  0  0  0  0  0  0  0  0  0
   -8.9540    2.5080   -0.9248 N   0  0  0  0  0  0  0  0  0  0  0  0
   -9.5640    1.9794   -2.1152 C   0  0  0  0  0  0  0  0  0  0  0  0
  -10.7503    1.2317   -2.0590 C   0  0  0  0  0  0  0  0  0  0  0  0
  -11.3113    0.7083   -3.2248 C   0  0  0  0  0  0  0  0  0  0  0  0
  -10.6933    0.9087   -4.4697 C   0  0  0  0  0  0  0  0  0  0  0  0
  -11.3234    0.3296   -5.7094 C   0  0  0  0  0  0  0  0  0  0  0  0
   -9.4844    1.6412   -4.5335 C   0  0  0  0  0  0  0  0  0  0  0  0
   -8.7790    1.8705   -5.8448 C   0  0  0  0  0  0  0  0  0  0  0  0
   -8.9295    2.1619   -3.3514 C   0  0  0  0  0  0  0  0  0  0  0  0
   -8.9140    3.8406    4.9351 N   0  0  0  0  0  0  0  0  0  0  0  0
  -10.1516    4.6305    4.9276 C   0  0  0  0  0  0  0  0  0  0  0  0
   -9.8887    6.0554    4.4487 C   0  0  0  0  0  0  0  0  0  0  0  0
  1  3  4  0
  1 14  4  0
  1  2  1  0
  3  4  4  0
  4  5  4  0
  5  6  4  0
  5 22  1  0
  6  7  1  0
  6 14  4  0
  7  8  1  0
  8  9  4  0
  8 12  4  0
  9 10  4  0
 10 11  4  0
 11 12  4  0
 12 13  1  0
 13 14  1  0
 13 15  1  6
 15 16  4  0
 15 20  4  0
 16 17  4  0
 17 18  4  0
 17 21  1  0
 18 19  4  0
 19 20  4  0
 23 24  4  0
 24 25  4  0
 25 26  1  0
 26 27  1  0
 27 28  1  0
 28 29  2  0
 28 30  1  0
 30 31  1  0
 31 32  4  0
 32 33  4  0
 33 34  4  0
 34 35  1  0
 34 36  4  0
 36 37  1  0
 36 38  4  0
 25 39  4  0
 39 40  1  0
 40 41  1  0
 38 31  4  0
  2 23  4  0
  2 39  4  0
M  END
$$$$

     RDKit          3D

 38 44  0  0  0  0  0  0  0  0999 V2000
   -7.6410    4.9930    6.8080 C   0  0  0  0  0  0  0  0  0  1  0  0
   -7.7310    4.0530    5.7140 C   0  0  0  0  0  0  0  0  0  2  0  0
   -6.4520    5.6300    6.8680 N   0  0  0  0  0  0  0  0  0  0  0  0
   -6.2260    6.5240    7.8670 N   0  0  0  0  0  0  0  0  0  0  0  0
   -7.1930    6.7500    8.7820 C   0  0  0  0  0  0  0  0  0  0  0  0
   -8.4240    6.1170    8.7580 C   0  0  0  0  0  0  0  0  0  0  0  0
   -9.3950    6.3570    9.7450 N   0  0  0  0  0  0  0  0  0  0  0  0
  -10.5620    5.6840    9.7600 C   0  0  0  0  0  0  0  0  0  0  0  0
  -11.5770    5.6820   10.5960 N   0  0  0  0  0  0  0  0  0  0  0  0
  -12.4690    4.7490   10.1080 N   0  0  0  0  0  0  0  0  0  0  0  0
  -12.0160    4.1880    8.9920 N   0  0  0  0  0  0  0  0  0  0  0  0
  -10.8400    4.7900    8.7610 N   0  0  0  0  0  0  0  0  0  0  0  0
   -9.9950    4.4790    7.6090 C   0  0  0  0  0  0  0  0  0  0  0  0
   -8.6630    5.2070    7.7200 C   0  0  0  0  0  0  0  0  0  0  0  0
  -10.7490    4.8610    6.3730 C   0  0  0  0  0  0  0  0  0  0  0  0
  -11.0350    6.2020    6.1170 C   0  0  0  0  0  0  0  0  0  0  0  0
  -11.7370    6.5580    4.9650 C   0  0  0  0  0  0  0  0  0  0  0  0
  -12.1550    5.5730    4.0710 C   0  0  0  0  0  0  0  0  0  0  0  0
  -11.8700    4.2310    4.3270 C   0  0  0  0  0  0  0  0  0  0  0  0
  -11.1660    3.8760    5.4790 C   0  0  0  0  0  0  0  0  0  0  0  0
  -12.0160    7.8660    4.7150 O   0  0  0  0  0  0  0  0  0  0  0  0
   -6.8990    7.6510    9.7710 O   0  0  0  0  0  0  0  0  0  0  0  0
   -6.9072    2.9572    5.4266 C   0  0  0  0  0  0  0  0  0  0  0  0
   -7.4157    2.1375    4.4749 N   0  0  0  0  0  0  0  0  0  0  0  0
   -6.8086    0.9319    3.9719 C   0  0  0  0  0  0  0  0  0  0  0  0
   -6.0648    0.1011    4.8288 C   0  0  0  0  0  0  0  0  0  0  0  0
   -5.4697   -1.0668    4.3424 C   0  0  0  0  0  0  0  0  0  0  0  0
   -5.6052   -1.4145    2.9954 C   0  0  0  0  0  0  0  0  0  0  0  0
   -4.7901   -3.0094    2.3325 Br  0  0  0  0  0  0  0  0  0  0  0  0
   -6.3349   -0.5909    2.1332 C   0  0  0  0  0  0  0  0  0  0  0  0
   -6.9323    0.5771    2.6164 C   0  0  0  0  0  0  0  0  0  0  0  0
   -8.6096    2.6667    4.1396 C   0  0  0  0  0  0  0  0  0  0  0  0
   -9.5083    2.1341    3.2748 N   0  0  0  0  0  0  0  0  0  0  0  0
  -10.6888    2.7858    3.0726 C   0  0  0  0  0  0  0  0  0  0  0  0
  -10.9496    3.9627    3.7190 N   0  0  0  0  0  0  0  0  0  0  0  0
  -10.0614    4.5100    4.5996 C   0  0  0  0  0  0  0  0  0  0  0  0
  -10.3350    5.7912    5.1692 N   0  0  0  0  0  0  0  0  0  0  0  0
   -8.8698    3.8134    4.8412 C   0  0  0  0  0  0  0  0  0  0  0  0
  1  3  4  0
  1 14  4  0
  1  2  1  0
  3  4  4  0
  4  5  4  0
  5  6  4  0
  5 22  1  0
  6  7  1  0
  6 14  4  0
  7  8  1  0
  8  9  4  0
  8 12  4  0
  9 10  4  0
 10 11  4  0
 11 12  4  0
 12 13  1  0
 13 14  1  0
 13 15  1  6
 15 16  4  0
 15 20  4  0
 16 17  4  0
 17 18  4  0
 17 21  1  0
 18 19  4  0
 19 20  4  0
 23 24  4  0
 24 25  1  0
 25 26  4  0
 26 27  4  0
 27 28  4  0
 28 29  1  0
 28 30  4  0
 30 31  4  0
 24 32  4  0
 32 33  4  0
 33 34  4  0
 34 35  4  0
 35 36  4  0
 36 37  1  0
 36 38  4  0
 31 25  4  0
 38 32  4  0
  2 23  4  0
  2 38  4  0
M  END
$$$$

     RDKit          3D

 43 49  0  0  0  0  0  0  0  0999 V2000
   -7.6410    4.9930    6.8080 C   0  0  0  0  0  0  0  0  0  1  0  0
   -7.7310    4.0530    5.7140 C   0  0  0  0  0  0  0  0  0  2  0  0
   -6.4520    5.6300    6.8680 N   0  0  0  0  0  0  0  0  0  0  0  0
   -6.2260    6.5240    7.8670 N   0  0  0  0  0  0  0  0  0  0  0  0
   -7.1930    6.7500    8.7820 C   0  0  0  0  0  0  0  0  0  0  0  0
   -8.4240    6.1170    8.7580 C   0  0  0  0  0  0  0  0  0  0  0  0
   -9.3950    6.3570    9.7450 N   0  0  0  0  0  0  0  0  0  0  0  0
  -10.5620    5.6840    9.7600 C   0  0  0  0  0  0  0  0  0  0  0  0
  -11.5770    5.6820   10.5960 N   0  0  0  0  0  0  0  0  0  0  0  0
  -12.4690    4.7490   10.1080 N   0  0  0  0  0  0  0  0  0  0  0  0
  -12.0160    4.1880    8.9920 N   0  0  0  0  0  0  0  0  0  0  0  0
  -10.8400    4.7900    8.7610 N   0  0  0  0  0  0  0  0  0  0  0  0
   -9.9950    4.4790    7.6090 C   0  0  0  0  0  0  0  0  0  0  0  0
   -8.6630    5.2070    7.7200 C   0  0  0  0  0  0  0  0  0  0  0  0
  -10.7490    4.8610    6.3730 C   0  0  0  0  0  0  0  0  0  0  0  0
  -11.0350    6.2020    6.1170 C   0  0  0  0  0  0  0  0  0  0  0  0
  -11.7370    6.5580    4.9650 C   0  0  0  0  0  0  0  0  0  0  0  0
  -12.1550    5.5730    4.0710 C   0  0  0  0  0  0  0  0  0  0  0  0
  -11.8700    4.2310    4.3270 C   0  0  0  0  0  0  0  0  0  0  0  0
  -11.1660    3.8760    5.4790 C   0  0  0  0  0  0  0  0  0  0  0  0
  -12.0160    7.8660    4.7150 O   0  0  0  0  0  0  0  0  0  0  0  0
   -6.8990    7.6510    9.7710 O   0  0  0  0  0  0  0  0  0  0  0  0
   -6.7957    3.1710    5.3081 N   0  0  0  0  0  0  0  0  0  0  0  0
   -7.2410    2.4513    4.2897 N   0  0  0  0  0  0  0  0  0  0  0  0
   -6.4482    1.4709    3.5964 C   0  0  0  0  0  0  0  0  0  0  0  0
   -7.0569    0.3871    2.9362 C   0  0  0  0  0  0  0  0  0  0  0  0
   -6.2759   -0.5692    2.2774 C   0  0  0  0  0  0  0  0  0  0  0  0
   -4.8816   -0.4540    2.2713 C   0  0  0  0  0  0  0  0  0  0  0  0
   -4.2658    0.6164    2.9304 C   0  0  0  0  0  0  0  0  0  0  0  0
   -5.0444    1.5695    3.5960 C   0  0  0  0  0  0  0  0  0  0  0  0
   -8.5011    2.8235    3.9860 C   0  0  0  0  0  0  0  0  0  0  0  0
   -8.8883    3.8151    4.8633 C   0  0  0  0  0  0  0  0  0  0  0  0
  -10.1423    4.6345    4.7364 C   0  0  0  0  0  0  0  0  0  0  0  0
   -9.9747    5.6727    3.6970 N   0  0  0  0  0  0  0  0  0  0  0  0
   -9.2523    6.8427    4.2264 C   0  0  0  0  0  0  0  0  0  0  0  0
  -11.2775    6.0757    3.1164 C   0  0  0  0  0  0  0  0  0  0  0  0
  -11.4870    5.3711    1.7627 C   0  0  0  0  0  0  0  0  0  0  0  0
  -10.3841    5.7619    0.7613 C   0  0  0  0  0  0  0  0  0  0  0  0
  -10.6465    5.1243   -0.6055 C   0  0  0  0  0  0  0  0  0  0  0  0
  -12.0506    5.4880   -1.1073 C   0  0  0  0  0  0  0  0  0  0  0  0
  -13.0864    5.0730   -0.1346 N   0  0  0  0  0  0  0  0  0  0  0  0
  -14.4246    5.4082   -0.6519 C   0  0  0  0  0  0  0  0  0  0  0  0
  -12.8723    5.7254    1.1776 C   0  0  0  0  0  0  0  0  0  0  0  0
  1  3  4  0
  1 14  4  0
  1  2  1  0
  3  4  4  0
  4  5  4  0
  5  6  4  0
  5 22  1  0
  6  7  1  0
  6 14  4  0
  7  8  1  0
  8  9  4  0
  8 12  4  0
  9 10  4  0
 10 11  4  0
 11 12  4  0
 12 13  1  0
 13 14  1  0
 13 15  1  6
 15 16  4  0
 15 20  4  0
 16 17  4  0
 17 18  4  0
 17 21  1  0
 18 19  4  0
 19 20  4  0
 23 24  4  0
 24 25  1  0
 25 26  4  0
 26 27  4  0
 27 28  4  0
 28 29  4  0
 29 30  4  0
 24 31  4  0
 31 32  4  0
 32 33  1  0
 33 34  1  0
 34 35  1  0
 34 36  1  0
 36 37  1  0
 37 38  1  0
 38 39  1  0
 39 40  1  0
 40 41  1  0
 41 42  1  0
 41 43  1  0
 43 37  1  0
 30 25  4  0
  2 23  4  0
  2 32  4  0
M  CHG  1  41   1
M  END
$$$$

     RDKit          3D

 39 45  0  0  0  0  0  0  0  0999 V2000
   -7.6410    4.9930    6.8080 C   0  0  0  0  0  0  0  0  0  1  0  0
   -7.7310    4.0530    5.7140 C   0  0  0  0  0  0  0  0  0  2  0  0
   -6.4520    5.6300    6.8680 N   0  0  0  0  0  0  0  0  0  0  0  0
   -6.2260    6.5240    7.8670 N   0  0  0  0  0  0  0  0  0  0  0  0
   -7.1930    6.7500    8.7820 C   0  0  0  0  0  0  0  0  0  0  0  0
   -8.4240    6.1170    8.7580 C   0  0  0  0  0  0  0  0  0  0  0  0
   -9.3950    6.3570    9.7450 N   0  0  0  0  0  0  0  0  0  0  0  0
  -10.5620    5.6840    9.7600 C   0  0  0  0  0  0  0  0  0  0  0  0
  -11.5770    5.6820   10.5960 N   0  0  0  0  0  0  0  0  0  0  0  0
  -12.4690    4.7490   10.1080 N   0  0  0  0  0  0  0  0  0  0  0  0
  -12.0160    4.1880    8.9920 N   0  0  0  0  0  0  0  0  0  0  0  0
  -10.8400    4.7900    8.7610 N   0  0  0  0  0  0  0  0  0  0  0  0
   -9.9950    4.4790    7.6090 C   0  0  0  0  0  0  0  0  0  0  0  0
   -8.6630    5.2070    7.7200 C   0  0  0  0  0  0  0  0  0  0  0  0
  -10.7490    4.8610    6.3730 C   0  0  0  0  0  0  0  0  0  0  0  0
  -11.0350    6.2020    6.1170 C   0  0  0  0  0  0  0  0  0  0  0  0
  -11.7370    6.5580    4.9650 C   0  0  0  0  0  0  0  0  0  0  0  0
  -12.1550    5.5730    4.0710 C   0  0  0  0  0  0  0  0  0  0  0  0
  -11.8700    4.2310    4.3270 C   0  0  0  0  0  0  0  0  0  0  0  0
  -11.1660    3.8760    5.4790 C   0  0  0  0  0  0  0  0  0  0  0  0
  -12.0160    7.8660    4.7150 O   0  0  0  0  0  0  0  0  0  0  0  0
   -6.8990    7.6510    9.7710 O   0  0  0  0  0  0  0  0  0  0  0  0
   -6.8776    2.9994    5.5971 N   0  0  0  0  0  0  0  0  0  0  0  0
   -6.9642    2.0474    4.6708 N   0  0  0  0  0  0  0  0  0  0  0  0
   -7.9623    2.0226    3.7496 C   0  0  0  0  0  0  0  0  0  0  0  0
   -8.0313    0.9276    2.8196 N   0  0  0  0  0  0  0  0  0  0  0  0
   -6.8695    0.2530    2.3055 C   0  0  0  0  0  0  0  0  0  0  0  0
   -6.9731   -1.0834    1.8913 C   0  0  0  0  0  0  0  0  0  0  0  0
   -5.8620   -1.7528    1.3700 C   0  0  0  0  0  0  0  0  0  0  0  0
   -4.6289   -1.0943    1.2553 C   0  0  0  0  0  0  0  0  0  0  0  0
   -3.4478   -1.8000    0.6582 C   0  0  0  0  0  0  0  0  0  0  0  0
   -4.5307    0.2528    1.6330 C   0  0  0  0  0  0  0  0  0  0  0  0
   -5.6415    0.9224    2.1549 C   0  0  0  0  0  0  0  0  0  0  0  0
   -8.9303    3.0488    3.7608 C   0  0  0  0  0  0  0  0  0  0  0  0
   -9.9582    3.1113    2.7974 C   0  0  0  0  0  0  0  0  0  0  0  0
  -10.8811    4.1576    2.8135 C   0  0  0  0  0  0  0  0  0  0  0  0
  -10.7847    5.1630    3.7727 C   0  0  0  0  0  0  0  0  0  0  0  0
   -9.7673    5.1282    4.7267 C   0  0  0  0  0  0  0  0  0  0  0  0
   -8.8370    4.0671    4.7450 C   0  0  0  0  0  0  0  0  0  0  0  0
  1  3  4  0
  1 14  4  0
  1  2  1  0
  3  4  4  0
  4  5  4  0
  5  6  4  0
  5 22  1  0
  6  7  1  0
  6 14  4  0
  7  8  1  0
  8  9  4  0
  8 12  4  0
  9 10  4  0
 10 11  4  0
 11 12  4  0
 12 13  1  0
 13 14  1  0
 13 15  1  6
 15 16  4  0
 15 20  4  0
 16 17  4  0
 17 18  4  0
 17 21  1  0
 18 19  4  0
 19 20  4  0
 23 24  4  0
 24 25  4  0
 25 26  1  0
 26 27  1  0
 27 28  4  0
 28 29  4  0
 29 30  4  0
 30 31  1  0
 30 32  4  0
 32 33  4  0
 25 34  4  0
 34 35  4  0
 35 36  4  0
 36 37  4  0
 37 38  4  0
 38 39  4  0
 33 27  4  0
 39 34  4  0
  2 23  4  0
  2 39  4  0
M  END
$$$$

     RDKit          3D

 39 45  0  0  0  0  0  0  0  0999 V2000
   -7.6410    4.9930    6.8080 C   0  0  0  0  0  0  0  0  0  1  0  0
   -7.7310    4.0530    5.7140 C   0  0  0  0  0  0  0  0  0  2  0  0
   -6.4520    5.6300    6.8680 N   0  0  0  0  0  0  0  0  0  0  0  0
   -6.2260    6.5240    7.8670 N   0  0  0  0  0  0  0  0  0  0  0  0
   -7.1930    6.7500    8.7820 C   0  0  0  0  0  0  0  0  0  0  0  0
   -8.4240    6.1170    8.7580 C   0  0  0  0  0  0  0  0  0  0  0  0
   -9.3950    6.3570    9.7450 N   0  0  0  0  0  0  0  0  0  0  0  0
  -10.5620    5.6840    9.7600 C   0  0  0  0  0  0  0  0  0  0  0  0
  -11.5770    5.6820   10.5960 N   0  0  0  0  0  0  0  0  0  0  0  0
  -12.4690    4.7490   10.1080 N   0  0  0  0  0  0  0  0  0  0  0  0
  -12.0160    4.1880    8.9920 N   0  0  0  0  0  0  0  0  0  0  0  0
  -10.8400    4.7900    8.7610 N   0  0  0  0  0  0  0  0  0  0  0  0
   -9.9950    4.4790    7.6090 C   0  0  0  0  0  0  0  0  0  0  0  0
   -8.6630    5.2070    7.7200 C   0  0  0  0  0  0  0  0  0  0  0  0
  -10.7490    4.8610    6.3730 C   0  0  0  0  0  0  0  0  0  0  0  0
  -11.0350    6.2020    6.1170 C   0  0  0  0  0  0  0  0  0  0  0  0
  -11.7370    6.5580    4.9650 C   0  0  0  0  0  0  0  0  0  0  0  0
  -12.1550    5.5730    4.0710 C   0  0  0  0  0  0  0  0  0  0  0  0
  -11.8700    4.2310    4.3270 C   0  0  0  0  0  0  0  0  0  0  0  0
  -11.1660    3.8760    5.4790 C   0  0  0  0  0  0  0  0  0  0  0  0
  -12.0160    7.8660    4.7150 O   0  0  0  0  0  0  0  0  0  0  0  0
   -6.8990    7.6510    9.7710 O   0  0  0  0  0  0  0  0  0  0  0  0
   -6.8785    2.9986    5.5981 N   0  0  0  0  0  0  0  0  0  0  0  0
   -6.9620    2.0497    4.6682 N   0  0  0  0  0  0  0  0  0  0  0  0
   -7.9655    2.0193    3.7532 C   0  0  0  0  0  0  0  0  0  0  0  0
   -7.9645    0.9919    2.7463 N   0  0  0  0  0  0  0  0  0  0  0  0
   -7.4756   -0.3408    2.9785 C   0  0  0  0  0  0  0  0  0  0  0  0
   -6.9854   -1.0946    1.9015 C   0  0  0  0  0  0  0  0  0  0  0  0
   -6.5234   -2.3990    2.1004 C   0  0  0  0  0  0  0  0  0  0  0  0
   -6.5446   -2.9694    3.3813 C   0  0  0  0  0  0  0  0  0  0  0  0
   -6.0871   -4.3829    3.5871 C   0  0  0  0  0  0  0  0  0  0  0  0
   -7.0687   -2.2330    4.4538 C   0  0  0  0  0  0  0  0  0  0  0  0
   -7.5302   -0.9283    4.2556 C   0  0  0  0  0  0  0  0  0  0  0  0
   -8.9415    3.0377    3.7732 C   0  0  0  0  0  0  0  0  0  0  0  0
  -10.0177    3.0551    2.8620 C   0  0  0  0  0  0  0  0  0  0  0  0
  -10.9486    4.0943    2.8859 C   0  0  0  0  0  0  0  0  0  0  0  0
  -10.8226    5.1275    3.8117 C   0  0  0  0  0  0  0  0  0  0  0  0
   -9.7779    5.1180    4.7366 C   0  0  0  0  0  0  0  0  0  0  0  0
   -8.8412    4.0626    4.7496 C   0  0  0  0  0  0  0  0  0  0  0  0
  1  3  4  0
  1 14  4  0
  1  2  1  0
  3  4  4  0
  4  5  4  0
  5  6  4  0
  5 22  1  0
  6  7  1  0
  6 14  4  0
  7  8  1  0
  8  9  4  0
  8 12  4  0
  9 10  4  0
 10 11  4  0
 11 12  4  0
 12 13  1  0
 13 14  1  0
 13 15  1  6
 15 16  4  0
 15 20  4  0
 16 17  4  0
 17 18  4  0
 17 21  1  0
 18 19  4  0
 19 20  4  0
 23 24  4  0
 24 25  4  0
 25 26  1  0
 26 27  1  0
 27 28  4  0
 28 29  4  0
 29 30  4  0
 30 31  1  0
 30 32  4  0
 32 33  4  0
 25 34  4  0
 34 35  4  0
 35 36  4  0
 36 37  4  0
 37 38  4  0
 38 39  4  0
 33 27  4  0
 39 34  4  0
  2 23  4  0
  2 39  4  0
M  END
$$$$

     RDKit          3D

 39 45  0  0  0  0  0  0  0  0999 V2000
   -7.6410    4.9930    6.8080 C   0  0  0  0  0  0  0  0  0  1  0  0
   -7.7310    4.0530    5.7140 C   0  0  0  0  0  0  0  0  0  2  0  0
   -6.4520    5.6300    6.8680 N   0  0  0  0  0  0  0  0  0  0  0  0
   -6.2260    6.5240    7.8670 N   0  0  0  0  0  0  0  0  0  0  0  0
   -7.1930    6.7500    8.7820 C   0  0  0  0  0  0  0  0  0  0  0  0
   -8.4240    6.1170    8.7580 C   0  0  0  0  0  0  0  0  0  0  0  0
   -9.3950    6.3570    9.7450 N   0  0  0  0  0  0  0  0  0  0  0  0
  -10.5620    5.6840    9.7600 C   0  0  0  0  0  0  0  0  0  0  0  0
  -11.5770    5.6820   10.5960 N   0  0  0  0  0  0  0  0  0  0  0  0
  -12.4690    4.7490   10.1080 N   0  0  0  0  0  0  0  0  0  0  0  0
  -12.0160    4.1880    8.9920 N   0  0  0  0  0  0  0  0  0  0  0  0
  -10.8400    4.7900    8.7610 N   0  0  0  0  0  0  0  0  0  0  0  0
   -9.9950    4.4790    7.6090 C   0  0  0  0  0  0  0  0  0  0  0  0
   -8.6630    5.2070    7.7200 C   0  0  0  0  0  0  0  0  0  0  0  0
  -10.7490    4.8610    6.3730 C   0  0  0  0  0  0  0  0  0  0  0  0
  -11.0350    6.2020    6.1170 C   0  0  0  0  0  0  0  0  0  0  0  0
  -11.7370    6.5580    4.9650 C   0  0  0  0  0  0  0  0  0  0  0  0
  -12.1550    5.5730    4.0710 C   0  0  0  0  0  0  0  0  0  0  0  0
  -11.8700    4.2310    4.3270 C   0  0  0  0  0  0  0  0  0  0  0  0
  -11.1660    3.8760    5.4790 C   0  0  0  0  0  0  0  0  0  0  0  0
  -12.0160    7.8660    4.7150 O   0  0  0  0  0  0  0  0  0  0  0  0
   -6.8990    7.6510    9.7710 O   0  0  0  0  0  0  0  0  0  0  0  0
   -6.8693    3.0069    5.5872 N   0  0  0  0  0  0  0  0  0  0  0  0
   -6.9593    2.0513    4.6644 N   0  0  0  0  0  0  0  0  0  0  0  0
   -7.9762    2.0109    3.7677 C   0  0  0  0  0  0  0  0  0  0  0  0
   -8.0183    0.9303    2.8250 N   0  0  0  0  0  0  0  0  0  0  0  0
   -9.0812   -0.0396    2.7670 C   0  0  0  0  0  0  0  0  0  0  0  0
  -10.0681   -0.1150    3.7683 C   0  0  0  0  0  0  0  0  0  0  0  0
  -11.0871   -1.0682    3.6862 C   0  0  0  0  0  0  0  0  0  0  0  0
  -11.1409   -1.9562    2.6023 C   0  0  0  0  0  0  0  0  0  0  0  0
  -12.2119   -3.0042    2.5359 C   0  0  0  0  0  0  0  0  0  0  0  0
  -10.1427   -1.9024    1.6188 C   0  0  0  0  0  0  0  0  0  0  0  0
   -9.1236   -0.9491    1.6997 C   0  0  0  0  0  0  0  0  0  0  0  0
   -8.9352    3.0449    3.7672 C   0  0  0  0  0  0  0  0  0  0  0  0
   -9.9544    3.1100    2.7960 C   0  0  0  0  0  0  0  0  0  0  0  0
  -10.8772    4.1562    2.8080 C   0  0  0  0  0  0  0  0  0  0  0  0
  -10.7859    5.1600    3.7700 C   0  0  0  0  0  0  0  0  0  0  0  0
   -9.7719    5.1248    4.7284 C   0  0  0  0  0  0  0  0  0  0  0  0
   -8.8415    4.0640    4.7492 C   0  0  0  0  0  0  0  0  0  0  0  0
  1  3  4  0
  1 14  4  0
  1  2  1  0
  3  4  4  0
  4  5  4  0
  5  6  4  0
  5 22  1  0
  6  7  1  0
  6 14  4  0
  7  8  1  0
  8  9  4  0
  8 12  4  0
  9 10  4  0
 10 11  4  0
 11 12  4  0
 12 13  1  0
 13 14  1  0
 13 15  1  6
 15 16  4  0
 15 20  4  0
 16 17  4  0
 17 18  4  0
 17 21  1  0
 18 19  4  0
 19 20  4  0
 23 24  4  0
 24 25  4  0
 25 26  1  0
 26 27  1  0
 27 28  4  0
 28 29  4  0
 29 30  4  0
 30 31  1  0
 30 32  4  0
 32 33  4  0
 25 34  4  0
 34 35  4  0
 35 36  4  0
 36 37  4  0
 37 38  4  0
 38 39  4  0
 33 27  4  0
 39 34  4  0
  2 23  4  0
  2 39  4  0
M  END
$$$$

     RDKit          3D

 39 45  0  0  0  0  0  0  0  0999 V2000
   -7.6410    4.9930    6.8080 C   0  0  0  0  0  0  0  0  0  1  0  0
   -7.7310    4.0530    5.7140 C   0  0  0  0  0  0  0  0  0  2  0  0
   -6.4520    5.6300    6.8680 N   0  0  0  0  0  0  0  0  0  0  0  0
   -6.2260    6.5240    7.8670 N   0  0  0  0  0  0  0  0  0  0  0  0
   -7.1930    6.7500    8.7820 C   0  0  0  0  0  0  0  0  0  0  0  0
   -8.4240    6.1170    8.7580 C   0  0  0  0  0  0  0  0  0  0  0  0
   -9.3950    6.3570    9.7450 N   0  0  0  0  0  0  0  0  0  0  0  0
  -10.5620    5.6840    9.7600 C   0  0  0  0  0  0  0  0  0  0  0  0
  -11.5770    5.6820   10.5960 N   0  0  0  0  0  0  0  0  0  0  0  0
  -12.4690    4.7490   10.1080 N   0  0  0  0  0  0  0  0  0  0  0  0
  -12.0160    4.1880    8.9920 N   0  0  0  0  0  0  0  0  0  0  0  0
  -10.8400    4.7900    8.7610 N   0  0  0  0  0  0  0  0  0  0  0  0
   -9.9950    4.4790    7.6090 C   0  0  0  0  0  0  0  0  0  0  0  0
   -8.6630    5.2070    7.7200 C   0  0  0  0  0  0  0  0  0  0  0  0
  -10.7490    4.8610    6.3730 C   0  0  0  0  0  0  0  0  0  0  0  0
  -11.0350    6.2020    6.1170 C   0  0  0  0  0  0  0  0  0  0  0  0
  -11.7370    6.5580    4.9650 C   0  0  0  0  0  0  0  0  0  0  0  0
  -12.1550    5.5730    4.0710 C   0  0  0  0  0  0  0  0  0  0  0  0
  -11.8700    4.2310    4.3270 C   0  0  0  0  0  0  0  0  0  0  0  0
  -11.1660    3.8760    5.4790 C   0  0  0  0  0  0  0  0  0  0  0  0
  -12.0160    7.8660    4.7150 O   0  0  0  0  0  0  0  0  0  0  0  0
   -6.8990    7.6510    9.7710 O   0  0  0  0  0  0  0  0  0  0  0  0
   -6.8839    2.9921    5.6042 N   0  0  0  0  0  0  0  0  0  0  0  0
   -6.9638    2.0462    4.6705 N   0  0  0  0  0  0  0  0  0  0  0  0
   -7.9504    2.0357    3.7398 C   0  0  0  0  0  0  0  0  0  0  0  0
   -7.9575    0.9901    2.7577 N   0  0  0  0  0  0  0  0  0  0  0  0
   -7.7806    1.2170    1.3466 C   0  0  0  0  0  0  0  0  0  0  0  0
   -7.9859    0.1579    0.4498 C   0  0  0  0  0  0  0  0  0  0  0  0
   -7.8205    0.3489   -0.9250 C   0  0  0  0  0  0  0  0  0  0  0  0
   -7.4277    1.5994   -1.4234 C   0  0  0  0  0  0  0  0  0  0  0  0
   -7.2895    1.8150   -2.9013 C   0  0  0  0  0  0  0  0  0  0  0  0
   -7.2284    2.6636   -0.5322 C   0  0  0  0  0  0  0  0  0  0  0  0
   -7.3932    2.4733    0.8428 C   0  0  0  0  0  0  0  0  0  0  0  0
   -8.9377    3.0419    3.7709 C   0  0  0  0  0  0  0  0  0  0  0  0
  -10.0182    3.0492    2.8664 C   0  0  0  0  0  0  0  0  0  0  0  0
  -10.9542    4.0835    2.8915 C   0  0  0  0  0  0  0  0  0  0  0  0
  -10.8289    5.1195    3.8149 C   0  0  0  0  0  0  0  0  0  0  0  0
   -9.7812    5.1161    4.7370 C   0  0  0  0  0  0  0  0  0  0  0  0
   -8.8400    4.0647    4.7482 C   0  0  0  0  0  0  0  0  0  0  0  0
  1  3  4  0
  1 14  4  0
  1  2  1  0
  3  4  4  0
  4  5  4  0
  5  6  4  0
  5 22  1  0
  6  7  1  0
  6 14  4  0
  7  8  1  0
  8  9  4  0
  8 12  4  0
  9 10  4  0
 10 11  4  0
 11 12  4  0
 12 13  1  0
 13 14  1  0
 13 15  1  6
 15 16  4  0
 15 20  4  0
 16 17  4  0
 17 18  4  0
 17 21  1  0
 18 19  4  0
 19 20  4  0
 23 24  4  0
 24 25  4  0
 25 26  1  0
 26 27  1  0
 27 28  4  0
 28 29  4  0
 29 30  4  0
 30 31  1  0
 30 32  4  0
 32 33  4  0
 25 34  4  0
 34 35  4  0
 35 36  4  0
 36 37  4  0
 37 38  4  0
 38 39  4  0
 33 27  4  0
 39 34  4  0
  2 23  4  0
  2 39  4  0
M  END
$$$$

     RDKit          3D

 35 40  0  0  0  0  0  0  0  0999 V2000
   -7.6410    4.9930    6.8080 C   0  0  0  0  0  0  0  0  0  1  0  0
   -7.7310    4.0530    5.7140 C   0  0  0  0  0  0  0  0  0  2  0  0
   -6.4520    5.6300    6.8680 N   0  0  0  0  0  0  0  0  0  0  0  0
   -6.2260    6.5240    7.8670 N   0  0  0  0  0  0  0  0  0  0  0  0
   -7.1930    6.7500    8.7820 C   0  0  0  0  0  0  0  0  0  0  0  0
   -8.4240    6.1170    8.7580 C   0  0  0  0  0  0  0  0  0  0  0  0
   -9.3950    6.3570    9.7450 N   0  0  0  0  0  0  0  0  0  0  0  0
  -10.5620    5.6840    9.7600 C   0  0  0  0  0  0  0  0  0  0  0  0
  -11.5770    5.6820   10.5960 N   0  0  0  0  0  0  0  0  0  0  0  0
  -12.4690    4.7490   10.1080 N   0  0  0  0  0  0  0  0  0  0  0  0
  -12.0160    4.1880    8.9920 N   0  0  0  0  0  0  0  0  0  0  0  0
  -10.8400    4.7900    8.7610 N   0  0  0  0  0  0  0  0  0  0  0  0
   -9.9950    4.4790    7.6090 C   0  0  0  0  0  0  0  0  0  0  0  0
   -8.6630    5.2070    7.7200 C   0  0  0  0  0  0  0  0  0  0  0  0
  -10.7490    4.8610    6.3730 C   0  0  0  0  0  0  0  0  0  0  0  0
  -11.0350    6.2020    6.1170 C   0  0  0  0  0  0  0  0  0  0  0  0
  -11.7370    6.5580    4.9650 C   0  0  0  0  0  0  0  0  0  0  0  0
  -12.1550    5.5730    4.0710 C   0  0  0  0  0  0  0  0  0  0  0  0
  -11.8700    4.2310    4.3270 C   0  0  0  0  0  0  0  0  0  0  0  0
  -11.1660    3.8760    5.4790 C   0  0  0  0  0  0  0  0  0  0  0  0
  -12.0160    7.8660    4.7150 O   0  0  0  0  0  0  0  0  0  0  0  0
   -6.8990    7.6510    9.7710 O   0  0  0  0  0  0  0  0  0  0  0  0
   -6.8001    3.1615    5.3134 N   0  0  0  0  0  0  0  0  0  0  0  0
   -7.2561    2.4595    4.2861 N   0  0  0  0  0  0  0  0  0  0  0  0
   -8.5062    2.8928    4.0448 C   0  0  0  0  0  0  0  0  0  0  0  0
   -8.8679    3.8716    4.8934 N   0  0  0  0  0  0  0  0  0  0  0  0
  -10.1680    4.5452    4.9652 C   0  0  0  0  0  0  0  0  0  0  0  0
  -10.9298    4.3694    3.7107 N   0  0  0  0  0  0  0  0  0  0  0  0
  -12.2580    5.0143    3.8182 C   0  0  0  0  0  0  0  0  0  0  0  0
  -12.7114    5.5169    2.4297 C   0  0  0  0  0  0  0  0  0  0  0  0
  -14.0498    6.1579    2.4093 N   0  0  0  0  0  0  0  0  0  0  0  0
  -14.1147    7.3714    3.2436 C   0  0  0  0  0  0  0  0  0  0  0  0
  -15.1320    5.2206    2.7597 C   0  0  0  0  0  0  0  0  0  0  0  0
  -11.0613    2.9310    3.3942 C   0  0  0  0  0  0  0  0  0  0  0  0
   -9.5051    2.3249    2.6715 S   0  0  0  0  0  0  0  0  0  0  0  0
  1  3  4  0
  1 14  4  0
  1  2  1  0
  3  4  4  0
  4  5  4  0
  5  6  4  0
  5 22  1  0
  6  7  1  0
  6 14  4  0
  7  8  1  0
  8  9  4  0
  8 12  4  0
  9 10  4  0
 10 11  4  0
 11 12  4  0
 12 13  1  0
 13 14  1  0
 13 15  1  6
 15 16  4  0
 15 20  4  0
 16 17  4  0
 17 18  4  0
 17 21  1  0
 18 19  4  0
 19 20  4  0
 23 24  4  0
 24 25  4  0
 25 26  4  0
 26 27  1  0
 27 28  1  0
 28 29  1  0
 29 30  1  0
 30 31  1  0
 31 32  1  0
 31 33  1  0
 28 34  1  0
 34 35  1  0
 35 25  1  0
  2 23  4  0
  2 26  4  0
M  CHG  1  31   1
M  END
$$$$

     RDKit          3D

 42 47  0  0  0  0  0  0  0  0999 V2000
   -7.6410    4.9930    6.8080 C   0  0  0  0  0  0  0  0  0  1  0  0
   -7.7310    4.0530    5.7140 C   0  0  0  0  0  0  0  0  0  2  0  0
   -6.4520    5.6300    6.8680 N   0  0  0  0  0  0  0  0  0  0  0  0
   -6.2260    6.5240    7.8670 N   0  0  0  0  0  0  0  0  0  0  0  0
   -7.1930    6.7500    8.7820 C   0  0  0  0  0  0  0  0  0  0  0  0
   -8.4240    6.1170    8.7580 C   0  0  0  0  0  0  0  0  0  0  0  0
   -9.3950    6.3570    9.7450 N   0  0  0  0  0  0  0  0  0  0  0  0
  -10.5620    5.6840    9.7600 C   0  0  0  0  0  0  0  0  0  0  0  0
  -11.5770    5.6820   10.5960 N   0  0  0  0  0  0  0  0  0  0  0  0
  -12.4690    4.7490   10.1080 N   0  0  0  0  0  0  0  0  0  0  0  0
  -12.0160    4.1880    8.9920 N   0  0  0  0  0  0  0  0  0  0  0  0
  -10.8400    4.7900    8.7610 N   0  0  0  0  0  0  0  0  0  0  0  0
   -9.9950    4.4790    7.6090 C   0  0  0  0  0  0  0  0  0  0  0  0
   -8.6630    5.2070    7.7200 C   0  0  0  0  0  0  0  0  0  0  0  0
  -10.7490    4.8610    6.3730 C   0  0  0  0  0  0  0  0  0  0  0  0
  -11.0350    6.2020    6.1170 C   0  0  0  0  0  0  0  0  0  0  0  0
  -11.7370    6.5580    4.9650 C   0  0  0  0  0  0  0  0  0  0  0  0
  -12.1550    5.5730    4.0710 C   0  0  0  0  0  0  0  0  0  0  0  0
  -11.8700    4.2310    4.3270 C   0  0  0  0  0  0  0  0  0  0  0  0
  -11.1660    3.8760    5.4790 C   0  0  0  0  0  0  0  0  0  0  0  0
  -12.0160    7.8660    4.7150 O   0  0  0  0  0  0  0  0  0  0  0  0
   -6.8990    7.6510    9.7710 O   0  0  0  0  0  0  0  0  0  0  0  0
   -6.8688    3.0555    5.4158 N   0  0  0  0  0  0  0  0  0  0  0  0
   -7.3337    2.3481    4.3967 N   0  0  0  0  0  0  0  0  0  0  0  0
   -8.5243    2.8782    4.0639 C   0  0  0  0  0  0  0  0  0  0  0  0
   -9.5203    2.2842    2.6816 S   0  0  0  0  0  0  0  0  0  0  0  0
   -8.8461    3.9223    4.8547 N   0  0  0  0  0  0  0  0  0  0  0  0
   -9.9539    4.8658    4.6685 C   0  0  0  0  0  0  0  0  0  0  0  0
   -9.7034    5.7261    3.4663 C   0  0  0  0  0  0  0  0  0  0  0  0
   -8.6179    6.3624    3.3758 O   0  0  0  0  0  0  0  0  0  0  0  0
  -10.6915    5.8312    2.4319 N   0  0  0  0  0  0  0  0  0  0  0  0
  -10.3917    6.4125    1.1264 C   0  0  0  0  0  0  0  0  0  0  0  0
   -9.6186    5.4245    0.2974 C   0  0  0  0  0  0  0  0  0  0  0  0
   -8.2478    5.6021    0.0599 C   0  0  0  0  0  0  0  0  0  0  0  0
   -7.5303    4.6547   -0.6775 C   0  0  0  0  0  0  0  0  0  0  0  0
   -8.1719    3.5103   -1.1864 C   0  0  0  0  0  0  0  0  0  0  0  0
   -7.4263    2.4931   -1.9665 C   0  0  0  0  0  0  0  0  0  0  0  0
   -8.0490    1.7674   -2.7897 O   0  0  0  0  0  0  0  0  0  0  0  0
   -6.0140    2.3050   -1.7864 N   0  0  0  0  0  0  0  0  0  0  0  0
   -5.2546    1.3805   -2.6206 C   0  0  0  0  0  0  0  0  0  0  0  0
   -9.5497    3.3475   -0.9601 C   0  0  0  0  0  0  0  0  0  0  0  0
  -10.2644    4.2925   -0.2197 C   0  0  0  0  0  0  0  0  0  0  0  0
  1  3  4  0
  1 14  4  0
  1  2  1  0
  3  4  4  0
  4  5  4  0
  5  6  4  0
  5 22  1  0
  6  7  1  0
  6 14  4  0
  7  8  1  0
  8  9  4  0
  8 12  4  0
  9 10  4  0
 10 11  4  0
 11 12  4  0
 12 13  1  0
 13 14  1  0
 13 15  1  6
 15 16  4  0
 15 20  4  0
 16 17  4  0
 17 18  4  0
 17 21  1  0
 18 19  4  0
 19 20  4  0
 23 24  4  0
 24 25  4  0
 25 26  1  0
 25 27  4  0
 27 28  1  0
 28 29  1  0
 29 30  2  0
 29 31  1  0
 31 32  1  0
 32 33  1  0
 33 34  4  0
 34 35  4  0
 35 36  4  0
 36 37  1  0
 37 38  2  0
 37 39  1  0
 39 40  1  0
 36 41  4  0
 41 42  4  0
 42 33  4  0
  2 23  4  0
  2 27  4  0
M  CHG  1  26  -1
M  END
$$$$

     RDKit          3D

 42 47  0  0  0  0  0  0  0  0999 V2000
   -7.6410    4.9930    6.8080 C   0  0  0  0  0  0  0  0  0  1  0  0
   -7.7310    4.0530    5.7140 C   0  0  0  0  0  0  0  0  0  2  0  0
   -6.4520    5.6300    6.8680 N   0  0  0  0  0  0  0  0  0  0  0  0
   -6.2260    6.5240    7.8670 N   0  0  0  0  0  0  0  0  0  0  0  0
   -7.1930    6.7500    8.7820 C   0  0  0  0  0  0  0  0  0  0  0  0
   -8.4240    6.1170    8.7580 C   0  0  0  0  0  0  0  0  0  0  0  0
   -9.3950    6.3570    9.7450 N   0  0  0  0  0  0  0  0  0  0  0  0
  -10.5620    5.6840    9.7600 C   0  0  0  0  0  0  0  0  0  0  0  0
  -11.5770    5.6820   10.5960 N   0  0  0  0  0  0  0  0  0  0  0  0
  -12.4690    4.7490   10.1080 N   0  0  0  0  0  0  0  0  0  0  0  0
  -12.0160    4.1880    8.9920 N   0  0  0  0  0  0  0  0  0  0  0  0
  -10.8400    4.7900    8.7610 N   0  0  0  0  0  0  0  0  0  0  0  0
   -9.9950    4.4790    7.6090 C   0  0  0  0  0  0  0  0  0  0  0  0
   -8.6630    5.2070    7.7200 C   0  0  0  0  0  0  0  0  0  0  0  0
  -10.7490    4.8610    6.3730 C   0  0  0  0  0  0  0  0  0  0  0  0
  -11.0350    6.2020    6.1170 C   0  0  0  0  0  0  0  0  0  0  0  0
  -11.7370    6.5580    4.9650 C   0  0  0  0  0  0  0  0  0  0  0  0
  -12.1550    5.5730    4.0710 C   0  0  0  0  0  0  0  0  0  0  0  0
  -11.8700    4.2310    4.3270 C   0  0  0  0  0  0  0  0  0  0  0  0
  -11.1660    3.8760    5.4790 C   0  0  0  0  0  0  0  0  0  0  0  0
  -12.0160    7.8660    4.7150 O   0  0  0  0  0  0  0  0  0  0  0  0
   -6.8990    7.6510    9.7710 O   0  0  0  0  0  0  0  0  0  0  0  0
   -6.9010    3.0174    5.4499 N   0  0  0  0  0  0  0  0  0  0  0  0
   -7.3286    2.3634    4.3792 N   0  0  0  0  0  0  0  0  0  0  0  0
   -8.4616    2.9686    3.9790 C   0  0  0  0  0  0  0  0  0  0  0  0
   -9.3747    2.4843    2.4995 S   0  0  0  0  0  0  0  0  0  0  0  0
   -8.7837    4.0055    4.7796 N   0  0  0  0  0  0  0  0  0  0  0  0
   -9.8365    5.0034    4.5607 C   0  0  0  0  0  0  0  0  0  0  0  0
   -9.4464    6.0314    3.5315 C   0  0  0  0  0  0  0  0  0  0  0  0
  -10.3296    6.8327    3.1230 O   0  0  0  0  0  0  0  0  0  0  0  0
   -8.1070    6.1264    3.0166 N   0  0  0  0  0  0  0  0  0  0  0  0
   -7.7802    6.9549    1.8579 C   0  0  0  0  0  0  0  0  0  0  0  0
   -8.4120    6.3848    0.6162 C   0  0  0  0  0  0  0  0  0  0  0  0
   -8.0310    5.1169    0.1535 C   0  0  0  0  0  0  0  0  0  0  0  0
   -8.6281    4.5701   -0.9864 C   0  0  0  0  0  0  0  0  0  0  0  0
   -9.6268    5.2790   -1.6805 C   0  0  0  0  0  0  0  0  0  0  0  0
  -10.2802    4.7146   -2.8892 C   0  0  0  0  0  0  0  0  0  0  0  0
  -10.8483    5.4933   -3.7034 O   0  0  0  0  0  0  0  0  0  0  0  0
  -10.3005    3.2998   -3.1391 N   0  0  0  0  0  0  0  0  0  0  0  0
  -10.8715    2.7506   -4.3627 C   0  0  0  0  0  0  0  0  0  0  0  0
   -9.9920    6.5578   -1.2205 C   0  0  0  0  0  0  0  0  0  0  0  0
   -9.3913    7.1046   -0.0828 C   0  0  0  0  0  0  0  0  0  0  0  0
  1  3  4  0
  1 14  4  0
  1  2  1  0
  3  4  4  0
  4  5  4  0
  5  6  4  0
  5 22  1  0
  6  7  1  0
  6 14  4  0
  7  8  1  0
  8  9  4  0
  8 12  4  0
  9 10  4  0
 10 11  4  0
 11 12  4  0
 12 13  1  0
 13 14  1  0
 13 15  1  6
 15 16  4  0
 15 20  4  0
 16 17  4  0
 17 18  4  0
 17 21  1  0
 18 19  4  0
 19 20  4  0
 23 24  4  0
 24 25  4  0
 25 26  1  0
 25 27  4  0
 27 28  1  0
 28 29  1  0
 29 30  2  0
 29 31  1  0
 31 32  1  0
 32 33  1  0
 33 34  4  0
 34 35  4  0
 35 36  4  0
 36 37  1  0
 37 38  2  0
 37 39  1  0
 39 40  1  0
 36 41  4  0
 41 42  4  0
 42 33  4  0
  2 23  4  0
  2 27  4  0
M  CHG  1  26  -1
M  END
$$$$

     RDKit          3D

 42 47  0  0  0  0  0  0  0  0999 V2000
   -7.6410    4.9930    6.8080 C   0  0  0  0  0  0  0  0  0  1  0  0
   -7.7310    4.0530    5.7140 C   0  0  0  0  0  0  0  0  0  2  0  0
   -6.4520    5.6300    6.8680 N   0  0  0  0  0  0  0  0  0  0  0  0
   -6.2260    6.5240    7.8670 N   0  0  0  0  0  0  0  0  0  0  0  0
   -7.1930    6.7500    8.7820 C   0  0  0  0  0  0  0  0  0  0  0  0
   -8.4240    6.1170    8.7580 C   0  0  0  0  0  0  0  0  0  0  0  0
   -9.3950    6.3570    9.7450 N   0  0  0  0  0  0  0  0  0  0  0  0
  -10.5620    5.6840    9.7600 C   0  0  0  0  0  0  0  0  0  0  0  0
  -11.5770    5.6820   10.5960 N   0  0  0  0  0  0  0  0  0  0  0  0
  -12.4690    4.7490   10.1080 N   0  0  0  0  0  0  0  0  0  0  0  0
  -12.0160    4.1880    8.9920 N   0  0  0  0  0  0  0  0  0  0  0  0
  -10.8400    4.7900    8.7610 N   0  0  0  0  0  0  0  0  0  0  0  0
   -9.9950    4.4790    7.6090 C   0  0  0  0  0  0  0  0  0  0  0  0
   -8.6630    5.2070    7.7200 C   0  0  0  0  0  0  0  0  0  0  0  0
  -10.7490    4.8610    6.3730 C   0  0  0  0  0  0  0  0  0  0  0  0
  -11.0350    6.2020    6.1170 C   0  0  0  0  0  0  0  0  0  0  0  0
  -11.7370    6.5580    4.9650 C   0  0  0  0  0  0  0  0  0  0  0  0
  -12.1550    5.5730    4.0710 C   0  0  0  0  0  0  0  0  0  0  0  0
  -11.8700    4.2310    4.3270 C   0  0  0  0  0  0  0  0  0  0  0  0
  -11.1660    3.8760    5.4790 C   0  0  0  0  0  0  0  0  0  0  0  0
  -12.0160    7.8660    4.7150 O   0  0  0  0  0  0  0  0  0  0  0  0
   -6.8990    7.6510    9.7710 O   0  0  0  0  0  0  0  0  0  0  0  0
   -6.8631    3.0641    5.4067 N   0  0  0  0  0  0  0  0  0  0  0  0
   -7.3020    2.3936    4.3518 N   0  0  0  0  0  0  0  0  0  0  0  0
   -8.4803    2.9416    4.0038 C   0  0  0  0  0  0  0  0  0  0  0  0
   -9.4274    2.4181    2.5597 S   0  0  0  0  0  0  0  0  0  0  0  0
   -8.8224    3.9546    4.8253 N   0  0  0  0  0  0  0  0  0  0  0  0
   -9.9114    4.9169    4.6263 C   0  0  0  0  0  0  0  0  0  0  0  0
   -9.5087    5.9922    3.6493 C   0  0  0  0  0  0  0  0  0  0  0  0
   -8.2887    6.2843    3.5228 O   0  0  0  0  0  0  0  0  0  0  0  0
  -10.4790    6.7415    2.8997 N   0  0  0  0  0  0  0  0  0  0  0  0
  -11.9120    6.4468    2.8735 C   0  0  0  0  0  0  0  0  0  0  0  0
  -12.1899    5.2177    2.0471 C   0  0  0  0  0  0  0  0  0  0  0  0
  -12.9455    4.1598    2.5734 C   0  0  0  0  0  0  0  0  0  0  0  0
  -13.1906    3.0153    1.8091 C   0  0  0  0  0  0  0  0  0  0  0  0
  -12.6874    2.9094    0.5002 C   0  0  0  0  0  0  0  0  0  0  0  0
  -12.9284    1.6980   -0.3211 C   0  0  0  0  0  0  0  0  0  0  0  0
  -12.8813    1.7848   -1.5787 O   0  0  0  0  0  0  0  0  0  0  0  0
  -13.1915    0.4246    0.2888 N   0  0  0  0  0  0  0  0  0  0  0  0
  -13.5346   -0.7459   -0.5097 C   0  0  0  0  0  0  0  0  0  0  0  0
  -11.9618    3.9876   -0.0358 C   0  0  0  0  0  0  0  0  0  0  0  0
  -11.7173    5.1309    0.7294 C   0  0  0  0  0  0  0  0  0  0  0  0
  1  3  4  0
  1 14  4  0
  1  2  1  0
  3  4  4  0
  4  5  4  0
  5  6  4  0
  5 22  1  0
  6  7  1  0
  6 14  4  0
  7  8  1  0
  8  9  4  0
  8 12  4  0
  9 10  4  0
 10 11  4  0
 11 12  4  0
 12 13  1  0
 13 14  1  0
 13 15  1  6
 15 16  4  0
 15 20  4  0
 16 17  4  0
 17 18  4  0
 17 21  1  0
 18 19  4  0
 19 20  4  0
 23 24  4  0
 24 25  4  0
 25 26  1  0
 25 27  4  0
 27 28  1  0
 28 29  1  0
 29 30  2  0
 29 31  1  0
 31 32  1  0
 32 33  1  0
 33 34  4  0
 34 35  4  0
 35 36  4  0
 36 37  1  0
 37 38  2  0
 37 39  1  0
 39 40  1  0
 36 41  4  0
 41 42  4  0
 42 33  4  0
  2 23  4  0
  2 27  4  0
M  CHG  1  26  -1
M  END
$$$$

     RDKit          3D

 34 40  0  0  0  0  0  0  0  0999 V2000
   -7.6410    4.9930    6.8080 C   0  0  0  0  0  0  0  0  0  1  0  0
   -7.7310    4.0530    5.7140 C   0  0  0  0  0  0  0  0  0  2  0  0
   -6.4520    5.6300    6.8680 N   0  0  0  0  0  0  0  0  0  0  0  0
   -6.2260    6.5240    7.8670 N   0  0  0  0  0  0  0  0  0  0  0  0
   -7.1930    6.7500    8.7820 C   0  0  0  0  0  0  0  0  0  0  0  0
   -8.4240    6.1170    8.7580 C   0  0  0  0  0  0  0  0  0  0  0  0
   -9.3950    6.3570    9.7450 N   0  0  0  0  0  0  0  0  0  0  0  0
  -10.5620    5.6840    9.7600 C   0  0  0  0  0  0  0  0  0  0  0  0
  -11.5770    5.6820   10.5960 N   0  0  0  0  0  0  0  0  0  0  0  0
  -12.4690    4.7490   10.1080 N   0  0  0  0  0  0  0  0  0  0  0  0
  -12.0160    4.1880    8.9920 N   0  0  0  0  0  0  0  0  0  0  0  0
  -10.8400    4.7900    8.7610 N   0  0  0  0  0  0  0  0  0  0  0  0
   -9.9950    4.4790    7.6090 C   0  0  0  0  0  0  0  0  0  0  0  0
   -8.6630    5.2070    7.7200 C   0  0  0  0  0  0  0  0  0  0  0  0
  -10.7490    4.8610    6.3730 C   0  0  0  0  0  0  0  0  0  0  0  0
  -11.0350    6.2020    6.1170 C   0  0  0  0  0  0  0  0  0  0  0  0
  -11.7370    6.5580    4.9650 C   0  0  0  0  0  0  0  0  0  0  0  0
  -12.1550    5.5730    4.0710 C   0  0  0  0  0  0  0  0  0  0  0  0
  -11.8700    4.2310    4.3270 C   0  0  0  0  0  0  0  0  0  0  0  0
  -11.1660    3.8760    5.4790 C   0  0  0  0  0  0  0  0  0  0  0  0
  -12.0160    7.8660    4.7150 O   0  0  0  0  0  0  0  0  0  0  0  0
   -6.8990    7.6510    9.7710 O   0  0  0  0  0  0  0  0  0  0  0  0
   -6.7510    3.1044    5.3366 C   0  0  0  0  0  0  0  0  0  0  0  0
   -6.9178    2.1720    4.2889 C   0  0  0  0  0  0  0  0  0  0  0  0
   -8.1206    2.1152    3.5659 C   0  0  0  0  0  0  0  0  0  0  0  0
   -9.1275    3.0069    3.9201 C   0  0  0  0  0  0  0  0  0  0  0  0
   -8.9759    3.9236    4.9414 C   0  0  0  0  0  0  0  0  0  0  0  0
  -10.0596    4.6676    5.0681 O   0  0  0  0  0  0  0  0  0  0  0  0
  -10.9153    4.2518    4.1561 C   0  0  0  0  0  0  0  0  0  0  0  0
  -12.1967    4.7398    3.9105 C   0  0  0  0  0  0  0  0  0  0  0  0
  -12.9404    4.1445    2.8738 C   0  0  0  0  0  0  0  0  0  0  0  0
  -12.3929    3.0857    2.1129 C   0  0  0  0  0  0  0  0  0  0  0  0
  -11.0954    2.6099    2.3797 C   0  0  0  0  0  0  0  0  0  0  0  0
  -10.3862    3.2188    3.4129 C   0  0  0  0  0  0  0  0  0  0  0  0
  1  3  4  0
  1 14  4  0
  1  2  1  0
  3  4  4  0
  4  5  4  0
  5  6  4  0
  5 22  1  0
  6  7  1  0
  6 14  4  0
  7  8  1  0
  8  9  4  0
  8 12  4  0
  9 10  4  0
 10 11  4  0
 11 12  4  0
 12 13  1  0
 13 14  1  0
 13 15  1  6
 15 16  4  0
 15 20  4  0
 16 17  4  0
 17 18  4  0
 17 21  1  0
 18 19  4  0
 19 20  4  0
 23 24  4  0
 24 25  4  0
 25 26  4  0
 26 27  4  0
 27 28  4  0
 28 29  4  0
 29 30  4  0
 30 31  4  0
 31 32  4  0
 32 33  4  0
 33 34  4  0
 34 29  4  0
 34 26  4  0
  2 23  4  0
  2 27  4  0
M  END
$$$$

     RDKit          3D

 43 49  0  0  0  0  0  0  0  0999 V2000
   -7.6410    4.9930    6.8080 C   0  0  0  0  0  0  0  0  0  1  0  0
   -7.7310    4.0530    5.7140 C   0  0  0  0  0  0  0  0  0  2  0  0
   -6.4520    5.6300    6.8680 N   0  0  0  0  0  0  0  0  0  0  0  0
   -6.2260    6.5240    7.8670 N   0  0  0  0  0  0  0  0  0  0  0  0
   -7.1930    6.7500    8.7820 C   0  0  0  0  0  0  0  0  0  0  0  0
   -8.4240    6.1170    8.7580 C   0  0  0  0  0  0  0  0  0  0  0  0
   -9.3950    6.3570    9.7450 N   0  0  0  0  0  0  0  0  0  0  0  0
  -10.5620    5.6840    9.7600 C   0  0  0  0  0  0  0  0  0  0  0  0
  -11.5770    5.6820   10.5960 N   0  0  0  0  0  0  0  0  0  0  0  0
  -12.4690    4.7490   10.1080 N   0  0  0  0  0  0  0  0  0  0  0  0
  -12.0160    4.1880    8.9920 N   0  0  0  0  0  0  0  0  0  0  0  0
  -10.8400    4.7900    8.7610 N   0  0  0  0  0  0  0  0  0  0  0  0
   -9.9950    4.4790    7.6090 C   0  0  0  0  0  0  0  0  0  0  0  0
   -8.6630    5.2070    7.7200 C   0  0  0  0  0  0  0  0  0  0  0  0
  -10.7490    4.8610    6.3730 C   0  0  0  0  0  0  0  0  0  0  0  0
  -11.0350    6.2020    6.1170 C   0  0  0  0  0  0  0  0  0  0  0  0
  -11.7370    6.5580    4.9650 C   0  0  0  0  0  0  0  0  0  0  0  0
  -12.1550    5.5730    4.0710 C   0  0  0  0  0  0  0  0  0  0  0  0
  -11.8700    4.2310    4.3270 C   0  0  0  0  0  0  0  0  0  0  0  0
  -11.1660    3.8760    5.4790 C   0  0  0  0  0  0  0  0  0  0  0  0
  -12.0160    7.8660    4.7150 O   0  0  0  0  0  0  0  0  0  0  0  0
   -6.8990    7.6510    9.7710 O   0  0  0  0  0  0  0  0  0  0  0  0
   -8.8837    3.7995    4.8448 C   0  0  0  0  0  0  0  0  0  0  0  0
  -10.1803    4.5432    4.8663 C   0  0  0  0  0  0  0  0  0  0  0  0
   -8.6189    2.8021    3.9662 N   0  0  0  0  0  0  0  0  0  0  0  0
   -7.3896    2.3819    4.2206 N   0  0  0  0  0  0  0  0  0  0  0  0
   -6.7130    1.3818    3.5915 C   0  0  0  0  0  0  0  0  0  0  0  0
   -7.3704    0.6066    2.4794 C   0  0  0  0  0  0  0  0  0  0  0  0
   -5.3889    1.1129    4.0305 C   0  0  0  0  0  0  0  0  0  0  0  0
   -4.5255    0.0960    3.3931 C   0  0  0  0  0  0  0  0  0  0  0  0
   -3.8323   -0.6683    4.1191 O   0  0  0  0  0  0  0  0  0  0  0  0
   -4.4072    0.0330    1.9636 N   0  0  0  0  0  0  0  0  0  0  0  0
   -3.8097   -1.0784    1.2715 C   0  0  0  0  0  0  0  0  0  0  0  0
   -4.0839   -2.3948    1.6852 C   0  0  0  0  0  0  0  0  0  0  0  0
   -3.5397   -3.4822    0.9993 C   0  0  0  0  0  0  0  0  0  0  0  0
   -2.7230   -3.2719   -0.1117 C   0  0  0  0  0  0  0  0  0  0  0  0
   -2.2001   -4.3312   -0.7785 F   0  0  0  0  0  0  0  0  0  0  0  0
   -2.4489   -1.9714   -0.5420 C   0  0  0  0  0  0  0  0  0  0  0  0
   -2.9824   -0.8654    0.1432 C   0  0  0  0  0  0  0  0  0  0  0  0
   -2.6708    0.5245   -0.3419 C   0  0  0  0  0  0  0  0  0  0  0  0
   -4.8842    1.8508    5.1276 C   0  0  0  0  0  0  0  0  0  0  0  0
   -5.6293    2.8272    5.7151 N   0  0  0  0  0  0  0  0  0  0  0  0
   -6.8689    3.0815    5.2352 C   0  0  0  0  0  0  0  0  0  0  0  0
  1  3  4  0
  1 14  4  0
  1  2  1  0
  3  4  4  0
  4  5  4  0
  5  6  4  0
  5 22  1  0
  6  7  1  0
  6 14  4  0
  7  8  1  0
  8  9  4  0
  8 12  4  0
  9 10  4  0
 10 11  4  0
 11 12  4  0
 12 13  1  0
 13 14  1  0
 13 15  1  6
 15 16  4  0
 15 20  4  0
 16 17  4  0
 17 18  4  0
 17 21  1  0
 18 19  4  0
 19 20  4  0
 23 24  1  0
 23 25  4  0
 25 26  4  0
 26 27  4  0
 27 28  1  0
 27 29  4  0
 29 30  1  0
 30 31  2  0
 30 32  1  0
 32 33  1  0
 33 34  4  0
 34 35  4  0
 35 36  4  0
 36 37  1  0
 36 38  4  0
 38 39  4  0
 39 40  1  0
 29 41  4  0
 41 42  4  0
 42 43  4  0
 43 26  4  0
 39 33  4  0
  2 23  4  0
  2 43  4  0
M  END
$$$$

     RDKit          3D

 43 49  0  0  0  0  0  0  0  0999 V2000
   -7.6410    4.9930    6.8080 C   0  0  0  0  0  0  0  0  0  1  0  0
   -7.7310    4.0530    5.7140 C   0  0  0  0  0  0  0  0  0  2  0  0
   -6.4520    5.6300    6.8680 N   0  0  0  0  0  0  0  0  0  0  0  0
   -6.2260    6.5240    7.8670 N   0  0  0  0  0  0  0  0  0  0  0  0
   -7.1930    6.7500    8.7820 C   0  0  0  0  0  0  0  0  0  0  0  0
   -8.4240    6.1170    8.7580 C   0  0  0  0  0  0  0  0  0  0  0  0
   -9.3950    6.3570    9.7450 N   0  0  0  0  0  0  0  0  0  0  0  0
  -10.5620    5.6840    9.7600 C   0  0  0  0  0  0  0  0  0  0  0  0
  -11.5770    5.6820   10.5960 N   0  0  0  0  0  0  0  0  0  0  0  0
  -12.4690    4.7490   10.1080 N   0  0  0  0  0  0  0  0  0  0  0  0
  -12.0160    4.1880    8.9920 N   0  0  0  0  0  0  0  0  0  0  0  0
  -10.8400    4.7900    8.7610 N   0  0  0  0  0  0  0  0  0  0  0  0
   -9.9950    4.4790    7.6090 C   0  0  0  0  0  0  0  0  0  0  0  0
   -8.6630    5.2070    7.7200 C   0  0  0  0  0  0  0  0  0  0  0  0
  -10.7490    4.8610    6.3730 C   0  0  0  0  0  0  0  0  0  0  0  0
  -11.0350    6.2020    6.1170 C   0  0  0  0  0  0  0  0  0  0  0  0
  -11.7370    6.5580    4.9650 C   0  0  0  0  0  0  0  0  0  0  0  0
  -12.1550    5.5730    4.0710 C   0  0  0  0  0  0  0  0  0  0  0  0
  -11.8700    4.2310    4.3270 C   0  0  0  0  0  0  0  0  0  0  0  0
  -11.1660    3.8760    5.4790 C   0  0  0  0  0  0  0  0  0  0  0  0
  -12.0160    7.8660    4.7150 O   0  0  0  0  0  0  0  0  0  0  0  0
   -6.8990    7.6510    9.7710 O   0  0  0  0  0  0  0  0  0  0  0  0
   -8.8968    3.7807    4.8639 C   0  0  0  0  0  0  0  0  0  0  0  0
  -10.2084    4.4969    4.9107 C   0  0  0  0  0  0  0  0  0  0  0  0
   -8.6270    2.7983    3.9709 N   0  0  0  0  0  0  0  0  0  0  0  0
   -7.3835    2.4047    4.1952 N   0  0  0  0  0  0  0  0  0  0  0  0
   -6.6966    1.4309    3.5380 C   0  0  0  0  0  0  0  0  0  0  0  0
   -7.3592    0.6601    2.4258 C   0  0  0  0  0  0  0  0  0  0  0  0
   -5.3573    1.1909    3.9439 C   0  0  0  0  0  0  0  0  0  0  0  0
   -4.4837    0.2057    3.2774 C   0  0  0  0  0  0  0  0  0  0  0  0
   -3.8827   -0.6552    3.9759 O   0  0  0  0  0  0  0  0  0  0  0  0
   -4.2932    0.2429    1.8550 N   0  0  0  0  0  0  0  0  0  0  0  0
   -3.4996   -0.7297    1.1633 C   0  0  0  0  0  0  0  0  0  0  0  0
   -4.1297   -1.5944    0.2582 C   0  0  0  0  0  0  0  0  0  0  0  0
   -3.3918   -2.5628   -0.4257 C   0  0  0  0  0  0  0  0  0  0  0  0
   -2.0155   -2.6692   -0.2176 C   0  0  0  0  0  0  0  0  0  0  0  0
   -1.3020   -3.6149   -0.8771 F   0  0  0  0  0  0  0  0  0  0  0  0
   -1.3707   -1.7955    0.6623 C   0  0  0  0  0  0  0  0  0  0  0  0
   -2.0978   -0.8043    1.3432 C   0  0  0  0  0  0  0  0  0  0  0  0
   -1.3656    0.1388    2.2587 C   0  0  0  0  0  0  0  0  0  0  0  0
   -4.8464    1.9249    5.0389 C   0  0  0  0  0  0  0  0  0  0  0  0
   -5.6025    2.8764    5.6547 N   0  0  0  0  0  0  0  0  0  0  0  0
   -6.8582    3.1059    5.2064 C   0  0  0  0  0  0  0  0  0  0  0  0
  1  3  4  0
  1 14  4  0
  1  2  1  0
  3  4  4  0
  4  5  4  0
  5  6  4  0
  5 22  1  0
  6  7  1  0
  6 14  4  0
  7  8  1  0
  8  9  4  0
  8 12  4  0
  9 10  4  0
 10 11  4  0
 11 12  4  0
 12 13  1  0
 13 14  1  0
 13 15  1  6
 15 16  4  0
 15 20  4  0
 16 17  4  0
 17 18  4  0
 17 21  1  0
 18 19  4  0
 19 20  4  0
 23 24  1  0
 23 25  4  0
 25 26  4  0
 26 27  4  0
 27 28  1  0
 27 29  4  0
 29 30  1  0
 30 31  2  0
 30 32  1  0
 32 33  1  0
 33 34  4  0
 34 35  4  0
 35 36  4  0
 36 37  1  0
 36 38  4  0
 38 39  4  0
 39 40  1  0
 29 41  4  0
 41 42  4  0
 42 43  4  0
 43 26  4  0
 39 33  4  0
  2 23  4  0
  2 43  4  0
M  END
$$$$

     RDKit          3D

 43 49  0  0  0  0  0  0  0  0999 V2000
   -7.6410    4.9930    6.8080 C   0  0  0  0  0  0  0  0  0  1  0  0
   -7.7310    4.0530    5.7140 C   0  0  0  0  0  0  0  0  0  2  0  0
   -6.4520    5.6300    6.8680 N   0  0  0  0  0  0  0  0  0  0  0  0
   -6.2260    6.5240    7.8670 N   0  0  0  0  0  0  0  0  0  0  0  0
   -7.1930    6.7500    8.7820 C   0  0  0  0  0  0  0  0  0  0  0  0
   -8.4240    6.1170    8.7580 C   0  0  0  0  0  0  0  0  0  0  0  0
   -9.3950    6.3570    9.7450 N   0  0  0  0  0  0  0  0  0  0  0  0
  -10.5620    5.6840    9.7600 C   0  0  0  0  0  0  0  0  0  0  0  0
  -11.5770    5.6820   10.5960 N   0  0  0  0  0  0  0  0  0  0  0  0
  -12.4690    4.7490   10.1080 N   0  0  0  0  0  0  0  0  0  0  0  0
  -12.0160    4.1880    8.9920 N   0  0  0  0  0  0  0  0  0  0  0  0
  -10.8400    4.7900    8.7610 N   0  0  0  0  0  0  0  0  0  0  0  0
   -9.9950    4.4790    7.6090 C   0  0  0  0  0  0  0  0  0  0  0  0
   -8.6630    5.2070    7.7200 C   0  0  0  0  0  0  0  0  0  0  0  0
  -10.7490    4.8610    6.3730 C   0  0  0  0  0  0  0  0  0  0  0  0
  -11.0350    6.2020    6.1170 C   0  0  0  0  0  0  0  0  0  0  0  0
  -11.7370    6.5580    4.9650 C   0  0  0  0  0  0  0  0  0  0  0  0
  -12.1550    5.5730    4.0710 C   0  0  0  0  0  0  0  0  0  0  0  0
  -11.8700    4.2310    4.3270 C   0  0  0  0  0  0  0  0  0  0  0  0
  -11.1660    3.8760    5.4790 C   0  0  0  0  0  0  0  0  0  0  0  0
  -12.0160    7.8660    4.7150 O   0  0  0  0  0  0  0  0  0  0  0  0
   -6.8990    7.6510    9.7710 O   0  0  0  0  0  0  0  0  0  0  0  0
   -8.8999    3.7761    4.8705 C   0  0  0  0  0  0  0  0  0  0  0  0
  -10.2096    4.4959    4.9170 C   0  0  0  0  0  0  0  0  0  0  0  0
   -8.6391    2.7773    3.9930 N   0  0  0  0  0  0  0  0  0  0  0  0
   -7.3980    2.3773    4.2206 N   0  0  0  0  0  0  0  0  0  0  0  0
   -6.7209    1.3824    3.5828 C   0  0  0  0  0  0  0  0  0  0  0  0
   -7.3832    0.5985    2.4789 C   0  0  0  0  0  0  0  0  0  0  0  0
   -5.3871    1.1236    4.0037 C   0  0  0  0  0  0  0  0  0  0  0  0
   -4.5263    0.0982    3.3651 C   0  0  0  0  0  0  0  0  0  0  0  0
   -4.6230   -0.1256    2.1275 O   0  0  0  0  0  0  0  0  0  0  0  0
   -3.5780   -0.6404    4.1501 N   0  0  0  0  0  0  0  0  0  0  0  0
   -2.5985   -1.5061    3.5587 C   0  0  0  0  0  0  0  0  0  0  0  0
   -2.6038   -2.8658    3.9032 C   0  0  0  0  0  0  0  0  0  0  0  0
   -1.6772   -3.7436    3.3374 C   0  0  0  0  0  0  0  0  0  0  0  0
   -0.7298   -3.2699    2.4284 C   0  0  0  0  0  0  0  0  0  0  0  0
    0.1630   -4.1264    1.8733 F   0  0  0  0  0  0  0  0  0  0  0  0
   -0.6948   -1.9128    2.0972 C   0  0  0  0  0  0  0  0  0  0  0  0
   -1.6084   -1.0135    2.6735 C   0  0  0  0  0  0  0  0  0  0  0  0
   -1.5099    0.4483    2.3281 C   0  0  0  0  0  0  0  0  0  0  0  0
   -4.8648    1.8918    5.0724 C   0  0  0  0  0  0  0  0  0  0  0  0
   -5.6107    2.8634    5.6671 N   0  0  0  0  0  0  0  0  0  0  0  0
   -6.8658    3.0921    5.2182 C   0  0  0  0  0  0  0  0  0  0  0  0
  1  3  4  0
  1 14  4  0
  1  2  1  0
  3  4  4  0
  4  5  4  0
  5  6  4  0
  5 22  1  0
  6  7  1  0
  6 14  4  0
  7  8  1  0
  8  9  4  0
  8 12  4  0
  9 10  4  0
 10 11  4  0
 11 12  4  0
 12 13  1  0
 13 14  1  0
 13 15  1  6
 15 16  4  0
 15 20  4  0
 16 17  4  0
 17 18  4  0
 17 21  1  0
 18 19  4  0
 19 20  4  0
 23 24  1  0
 23 25  4  0
 25 26  4  0
 26 27  4  0
 27 28  1  0
 27 29  4  0
 29 30  1  0
 30 31  2  0
 30 32  1  0
 32 33  1  0
 33 34  4  0
 34 35  4  0
 35 36  4  0
 36 37  1  0
 36 38  4  0
 38 39  4  0
 39 40  1  0
 29 41  4  0
 41 42  4  0
 42 43  4  0
 43 26  4  0
 39 33  4  0
  2 23  4  0
  2 43  4  0
M  END
$$$$

     RDKit          3D

 43 49  0  0  0  0  0  0  0  0999 V2000
   -7.6410    4.9930    6.8080 C   0  0  0  0  0  0  0  0  0  1  0  0
   -7.7310    4.0530    5.7140 C   0  0  0  0  0  0  0  0  0  2  0  0
   -6.4520    5.6300    6.8680 N   0  0  0  0  0  0  0  0  0  0  0  0
   -6.2260    6.5240    7.8670 N   0  0  0  0  0  0  0  0  0  0  0  0
   -7.1930    6.7500    8.7820 C   0  0  0  0  0  0  0  0  0  0  0  0
   -8.4240    6.1170    8.7580 C   0  0  0  0  0  0  0  0  0  0  0  0
   -9.3950    6.3570    9.7450 N   0  0  0  0  0  0  0  0  0  0  0  0
  -10.5620    5.6840    9.7600 C   0  0  0  0  0  0  0  0  0  0  0  0
  -11.5770    5.6820   10.5960 N   0  0  0  0  0  0  0  0  0  0  0  0
  -12.4690    4.7490   10.1080 N   0  0  0  0  0  0  0  0  0  0  0  0
  -12.0160    4.1880    8.9920 N   0  0  0  0  0  0  0  0  0  0  0  0
  -10.8400    4.7900    8.7610 N   0  0  0  0  0  0  0  0  0  0  0  0
   -9.9950    4.4790    7.6090 C   0  0  0  0  0  0  0  0  0  0  0  0
   -8.6630    5.2070    7.7200 C   0  0  0  0  0  0  0  0  0  0  0  0
  -10.7490    4.8610    6.3730 C   0  0  0  0  0  0  0  0  0  0  0  0
  -11.0350    6.2020    6.1170 C   0  0  0  0  0  0  0  0  0  0  0  0
  -11.7370    6.5580    4.9650 C   0  0  0  0  0  0  0  0  0  0  0  0
  -12.1550    5.5730    4.0710 C   0  0  0  0  0  0  0  0  0  0  0  0
  -11.8700    4.2310    4.3270 C   0  0  0  0  0  0  0  0  0  0  0  0
  -11.1660    3.8760    5.4790 C   0  0  0  0  0  0  0  0  0  0  0  0
  -12.0160    7.8660    4.7150 O   0  0  0  0  0  0  0  0  0  0  0  0
   -6.8990    7.6510    9.7710 O   0  0  0  0  0  0  0  0  0  0  0  0
   -8.9163    3.7163    4.9100 C   0  0  0  0  0  0  0  0  0  0  0  0
  -10.2508    4.3875    4.9820 C   0  0  0  0  0  0  0  0  0  0  0  0
   -8.6481    2.7056    4.0478 N   0  0  0  0  0  0  0  0  0  0  0  0
   -7.3890    2.3512    4.2494 N   0  0  0  0  0  0  0  0  0  0  0  0
   -6.6993    1.3657    3.6130 C   0  0  0  0  0  0  0  0  0  0  0  0
   -7.3485    0.6148    2.4785 C   0  0  0  0  0  0  0  0  0  0  0  0
   -5.3397    1.1827    3.9822 C   0  0  0  0  0  0  0  0  0  0  0  0
   -4.4610    0.1651    3.3663 C   0  0  0  0  0  0  0  0  0  0  0  0
   -4.7891   -1.0501    3.4042 O   0  0  0  0  0  0  0  0  0  0  0  0
   -3.1846    0.5312    2.8208 N   0  0  0  0  0  0  0  0  0  0  0  0
   -2.9185    1.8183    2.2378 C   0  0  0  0  0  0  0  0  0  0  0  0
   -3.8726    2.4117    1.3924 C   0  0  0  0  0  0  0  0  0  0  0  0
   -3.6161    3.6417    0.7905 C   0  0  0  0  0  0  0  0  0  0  0  0
   -2.4018    4.2903    1.0197 C   0  0  0  0  0  0  0  0  0  0  0  0
   -2.1559    5.4879    0.4270 F   0  0  0  0  0  0  0  0  0  0  0  0
   -1.4414    3.7113    1.8523 C   0  0  0  0  0  0  0  0  0  0  0  0
   -1.6847    2.4706    2.4649 C   0  0  0  0  0  0  0  0  0  0  0  0
   -0.6549    1.8857    3.3920 C   0  0  0  0  0  0  0  0  0  0  0  0
   -4.7989    2.0136    4.9897 C   0  0  0  0  0  0  0  0  0  0  0  0
   -5.5631    2.9614    5.5987 N   0  0  0  0  0  0  0  0  0  0  0  0
   -6.8493    3.1131    5.2083 C   0  0  0  0  0  0  0  0  0  0  0  0
  1  3  4  0
  1 14  4  0
  1  2  1  0
  3  4  4  0
  4  5  4  0
  5  6  4  0
  5 22  1  0
  6  7  1  0
  6 14  4  0
  7  8  1  0
  8  9  4  0
  8 12  4  0
  9 10  4  0
 10 11  4  0
 11 12  4  0
 12 13  1  0
 13 14  1  0
 13 15  1  6
 15 16  4  0
 15 20  4  0
 16 17  4  0
 17 18  4  0
 17 21  1  0
 18 19  4  0
 19 20  4  0
 23 24  1  0
 23 25  4  0
 25 26  4  0
 26 27  4  0
 27 28  1  0
 27 29  4  0
 29 30  1  0
 30 31  2  0
 30 32  1  0
 32 33  1  0
 33 34  4  0
 34 35  4  0
 35 36  4  0
 36 37  1  0
 36 38  4  0
 38 39  4  0
 39 40  1  0
 29 41  4  0
 41 42  4  0
 42 43  4  0
 43 26  4  0
 39 33  4  0
  2 23  4  0
  2 43  4  0
M  END
$$$$

     RDKit          3D

 43 49  0  0  0  0  0  0  0  0999 V2000
   -7.6410    4.9930    6.8080 C   0  0  0  0  0  0  0  0  0  1  0  0
   -7.7310    4.0530    5.7140 C   0  0  0  0  0  0  0  0  0  2  0  0
   -6.4520    5.6300    6.8680 N   0  0  0  0  0  0  0  0  0  0  0  0
   -6.2260    6.5240    7.8670 N   0  0  0  0  0  0  0  0  0  0  0  0
   -7.1930    6.7500    8.7820 C   0  0  0  0  0  0  0  0  0  0  0  0
   -8.4240    6.1170    8.7580 C   0  0  0  0  0  0  0  0  0  0  0  0
   -9.3950    6.3570    9.7450 N   0  0  0  0  0  0  0  0  0  0  0  0
  -10.5620    5.6840    9.7600 C   0  0  0  0  0  0  0  0  0  0  0  0
  -11.5770    5.6820   10.5960 N   0  0  0  0  0  0  0  0  0  0  0  0
  -12.4690    4.7490   10.1080 N   0  0  0  0  0  0  0  0  0  0  0  0
  -12.0160    4.1880    8.9920 N   0  0  0  0  0  0  0  0  0  0  0  0
  -10.8400    4.7900    8.7610 N   0  0  0  0  0  0  0  0  0  0  0  0
   -9.9950    4.4790    7.6090 C   0  0  0  0  0  0  0  0  0  0  0  0
   -8.6630    5.2070    7.7200 C   0  0  0  0  0  0  0  0  0  0  0  0
  -10.7490    4.8610    6.3730 C   0  0  0  0  0  0  0  0  0  0  0  0
  -11.0350    6.2020    6.1170 C   0  0  0  0  0  0  0  0  0  0  0  0
  -11.7370    6.5580    4.9650 C   0  0  0  0  0  0  0  0  0  0  0  0
  -12.1550    5.5730    4.0710 C   0  0  0  0  0  0  0  0  0  0  0  0
  -11.8700    4.2310    4.3270 C   0  0  0  0  0  0  0  0  0  0  0  0
  -11.1660    3.8760    5.4790 C   0  0  0  0  0  0  0  0  0  0  0  0
  -12.0160    7.8660    4.7150 O   0  0  0  0  0  0  0  0  0  0  0  0
   -6.8990    7.6510    9.7710 O   0  0  0  0  0  0  0  0  0  0  0  0
   -8.9493    3.6509    4.9715 C   0  0  0  0  0  0  0  0  0  0  0  0
  -10.3177    4.2410    5.1259 C   0  0  0  0  0  0  0  0  0  0  0  0
   -8.6676    2.7084    4.0435 N   0  0  0  0  0  0  0  0  0  0  0  0
   -7.3749    2.4528    4.1306 N   0  0  0  0  0  0  0  0  0  0  0  0
   -6.6466    1.6094    3.3466 C   0  0  0  0  0  0  0  0  0  0  0  0
   -7.3248    0.7799    2.2862 C   0  0  0  0  0  0  0  0  0  0  0  0
   -5.2538    1.5259    3.5924 C   0  0  0  0  0  0  0  0  0  0  0  0
   -4.3611    0.6868    2.7756 C   0  0  0  0  0  0  0  0  0  0  0  0
   -3.4446    1.2446    2.1138 O   0  0  0  0  0  0  0  0  0  0  0  0
   -4.5587   -0.7335    2.7007 N   0  0  0  0  0  0  0  0  0  0  0  0
   -4.3333   -1.4558    1.4769 C   0  0  0  0  0  0  0  0  0  0  0  0
   -5.4350   -2.0489    0.8392 C   0  0  0  0  0  0  0  0  0  0  0  0
   -5.2898   -2.6439   -0.4168 C   0  0  0  0  0  0  0  0  0  0  0  0
   -4.0366   -2.6843   -1.0339 C   0  0  0  0  0  0  0  0  0  0  0  0
   -3.8992   -3.2613   -2.2528 F   0  0  0  0  0  0  0  0  0  0  0  0
   -2.9169   -2.1699   -0.3750 C   0  0  0  0  0  0  0  0  0  0  0  0
   -3.0445   -1.5813    0.8963 C   0  0  0  0  0  0  0  0  0  0  0  0
   -1.7966   -1.1208    1.5957 C   0  0  0  0  0  0  0  0  0  0  0  0
   -4.6996    2.3367    4.6079 C   0  0  0  0  0  0  0  0  0  0  0  0
   -5.4895    3.1676    5.3436 N   0  0  0  0  0  0  0  0  0  0  0  0
   -6.8234    3.2065    5.0882 C   0  0  0  0  0  0  0  0  0  0  0  0
  1  3  4  0
  1 14  4  0
  1  2  1  0
  3  4  4  0
  4  5  4  0
  5  6  4  0
  5 22  1  0
  6  7  1  0
  6 14  4  0
  7  8  1  0
  8  9  4  0
  8 12  4  0
  9 10  4  0
 10 11  4  0
 11 12  4  0
 12 13  1  0
 13 14  1  0
 13 15  1  6
 15 16  4  0
 15 20  4  0
 16 17  4  0
 17 18  4  0
 17 21  1  0
 18 19  4  0
 19 20  4  0
 23 24  1  0
 23 25  4  0
 25 26  4  0
 26 27  4  0
 27 28  1  0
 27 29  4  0
 29 30  1  0
 30 31  2  0
 30 32  1  0
 32 33  1  0
 33 34  4  0
 34 35  4  0
 35 36  4  0
 36 37  1  0
 36 38  4  0
 38 39  4  0
 39 40  1  0
 29 41  4  0
 41 42  4  0
 42 43  4  0
 43 26  4  0
 39 33  4  0
  2 23  4  0
  2 43  4  0
M  END
$$$$

     RDKit          3D

 39 44  0  0  0  0  0  0  0  0999 V2000
   -7.6410    4.9930    6.8080 C   0  0  0  0  0  0  0  0  0  1  0  0
   -7.7310    4.0530    5.7140 C   0  0  0  0  0  0  0  0  0  2  0  0
   -6.4520    5.6300    6.8680 N   0  0  0  0  0  0  0  0  0  0  0  0
   -6.2260    6.5240    7.8670 N   0  0  0  0  0  0  0  0  0  0  0  0
   -7.1930    6.7500    8.7820 C   0  0  0  0  0  0  0  0  0  0  0  0
   -8.4240    6.1170    8.7580 C   0  0  0  0  0  0  0  0  0  0  0  0
   -9.3950    6.3570    9.7450 N   0  0  0  0  0  0  0  0  0  0  0  0
  -10.5620    5.6840    9.7600 C   0  0  0  0  0  0  0  0  0  0  0  0
  -11.5770    5.6820   10.5960 N   0  0  0  0  0  0  0  0  0  0  0  0
  -12.4690    4.7490   10.1080 N   0  0  0  0  0  0  0  0  0  0  0  0
  -12.0160    4.1880    8.9920 N   0  0  0  0  0  0  0  0  0  0  0  0
  -10.8400    4.7900    8.7610 N   0  0  0  0  0  0  0  0  0  0  0  0
   -9.9950    4.4790    7.6090 C   0  0  0  0  0  0  0  0  0  0  0  0
   -8.6630    5.2070    7.7200 C   0  0  0  0  0  0  0  0  0  0  0  0
  -10.7490    4.8610    6.3730 C   0  0  0  0  0  0  0  0  0  0  0  0
  -11.0350    6.2020    6.1170 C   0  0  0  0  0  0  0  0  0  0  0  0
  -11.7370    6.5580    4.9650 C   0  0  0  0  0  0  0  0  0  0  0  0
  -12.1550    5.5730    4.0710 C   0  0  0  0  0  0  0  0  0  0  0  0
  -11.8700    4.2310    4.3270 C   0  0  0  0  0  0  0  0  0  0  0  0
  -11.1660    3.8760    5.4790 C   0  0  0  0  0  0  0  0  0  0  0  0
  -12.0160    7.8660    4.7150 O   0  0  0  0  0  0  0  0  0  0  0  0
   -6.8990    7.6510    9.7710 O   0  0  0  0  0  0  0  0  0  0  0  0
   -8.6806    4.2685    4.6251 C   0  0  0  0  0  0  0  0  0  0  0  0
   -9.4442    5.4988    4.6022 C   0  0  0  0  0  0  0  0  0  0  0  0
  -10.0541    6.4829    4.5881 N   0  0  0  0  0  0  0  0  0  0  0  0
   -8.8026    3.3395    3.5736 C   0  0  0  0  0  0  0  0  0  0  0  0
   -9.6903    3.5769    2.4716 N   0  0  0  0  0  0  0  0  0  0  0  0
   -8.0621    2.1968    3.5923 N   0  0  0  0  0  0  0  0  0  0  0  0
   -7.1925    1.9027    4.5994 C   0  0  0  0  0  0  0  0  0  0  0  0
   -6.4383    0.5976    4.5622 C   0  0  0  0  0  0  0  0  0  0  0  0
   -7.0277    2.8097    5.6704 C   0  0  0  0  0  0  0  0  0  1  0  0
   -6.1013    2.4992    6.7866 C   0  0  0  0  0  0  0  0  0  2  0  0
   -4.7138    2.5376    6.5906 C   0  0  0  0  0  0  0  0  0  0  0  0
   -3.8432    2.2591    7.6486 C   0  0  0  0  0  0  0  0  0  0  0  0
   -4.3534    1.9407    8.9202 C   0  0  0  0  0  0  0  0  0  0  0  0
   -3.5237    1.6639   10.0162 O   0  0  0  0  0  0  0  0  0  0  0  0
   -2.1032    1.7559    9.9934 C   0  0  0  0  0  0  0  0  0  0  0  0
   -5.7395    1.8953    9.1101 C   0  0  0  0  0  0  0  0  0  0  0  0
   -6.6101    2.1733    8.0527 C   0  0  0  0  0  0  0  0  0  0  0  0
  1  3  4  0
  1 14  4  0
  1  2  1  0
  3  4  4  0
  4  5  4  0
  5  6  4  0
  5 22  1  0
  6  7  1  0
  6 14  4  0
  7  8  1  0
  8  9  4  0
  8 12  4  0
  9 10  4  0
 10 11  4  0
 11 12  4  0
 12 13  1  0
 13 14  1  0
 13 15  1  6
 15 16  4  0
 15 20  4  0
 16 17  4  0
 17 18  4  0
 17 21  1  0
 18 19  4  0
 19 20  4  0
 23 24  1  0
 24 25  3  0
 23 26  4  0
 26 27  1  0
 26 28  4  0
 28 29  4  0
 29 30  1  0
 29 31  4  0
 31 32  1  0
 32 33  4  0
 33 34  4  0
 34 35  4  0
 35 36  1  0
 36 37  1  0
 35 38  4  0
 38 39  4  0
 39 32  4  0
  2 23  4  0
  2 31  4  0
M  CHG  1  28   1
M  END
$$$$

     RDKit          3D

 39 44  0  0  0  0  0  0  0  0999 V2000
   -7.6410    4.9930    6.8080 C   0  0  0  0  0  0  0  0  0  1  0  0
   -7.7310    4.0530    5.7140 C   0  0  0  0  0  0  0  0  0  2  0  0
   -6.4520    5.6300    6.8680 N   0  0  0  0  0  0  0  0  0  0  0  0
   -6.2260    6.5240    7.8670 N   0  0  0  0  0  0  0  0  0  0  0  0
   -7.1930    6.7500    8.7820 C   0  0  0  0  0  0  0  0  0  0  0  0
   -8.4240    6.1170    8.7580 C   0  0  0  0  0  0  0  0  0  0  0  0
   -9.3950    6.3570    9.7450 N   0  0  0  0  0  0  0  0  0  0  0  0
  -10.5620    5.6840    9.7600 C   0  0  0  0  0  0  0  0  0  0  0  0
  -11.5770    5.6820   10.5960 N   0  0  0  0  0  0  0  0  0  0  0  0
  -12.4690    4.7490   10.1080 N   0  0  0  0  0  0  0  0  0  0  0  0
  -12.0160    4.1880    8.9920 N   0  0  0  0  0  0  0  0  0  0  0  0
  -10.8400    4.7900    8.7610 N   0  0  0  0  0  0  0  0  0  0  0  0
   -9.9950    4.4790    7.6090 C   0  0  0  0  0  0  0  0  0  0  0  0
   -8.6630    5.2070    7.7200 C   0  0  0  0  0  0  0  0  0  0  0  0
  -10.7490    4.8610    6.3730 C   0  0  0  0  0  0  0  0  0  0  0  0
  -11.0350    6.2020    6.1170 C   0  0  0  0  0  0  0  0  0  0  0  0
  -11.7370    6.5580    4.9650 C   0  0  0  0  0  0  0  0  0  0  0  0
  -12.1550    5.5730    4.0710 C   0  0  0  0  0  0  0  0  0  0  0  0
  -11.8700    4.2310    4.3270 C   0  0  0  0  0  0  0  0  0  0  0  0
  -11.1660    3.8760    5.4790 C   0  0  0  0  0  0  0  0  0  0  0  0
  -12.0160    7.8660    4.7150 O   0  0  0  0  0  0  0  0  0  0  0  0
   -6.8990    7.6510    9.7710 O   0  0  0  0  0  0  0  0  0  0  0  0
   -8.6984    4.2545    4.6354 C   0  0  0  0  0  0  0  0  0  0  0  0
   -9.4731    5.4777    4.6182 C   0  0  0  0  0  0  0  0  0  0  0  0
  -10.0936    6.4555    4.6073 N   0  0  0  0  0  0  0  0  0  0  0  0
   -8.8249    3.3188    3.5896 C   0  0  0  0  0  0  0  0  0  0  0  0
   -9.7182    3.5511    2.4910 N   0  0  0  0  0  0  0  0  0  0  0  0
   -8.0780    2.1793    3.6071 N   0  0  0  0  0  0  0  0  0  0  0  0
   -7.1955    1.8974    4.6085 C   0  0  0  0  0  0  0  0  0  0  0  0
   -6.4284    0.6013    4.5762 C   0  0  0  0  0  0  0  0  0  0  0  0
   -7.0249    2.8119    5.6690 C   0  0  0  0  0  0  0  0  0  1  0  0
   -6.0696    2.5229    6.7626 C   0  0  0  0  0  0  0  0  0  2  0  0
   -6.5376    2.1008    8.0154 C   0  0  0  0  0  0  0  0  0  0  0  0
   -5.6386    1.8680    9.0620 C   0  0  0  0  0  0  0  0  0  0  0  0
   -4.2576    2.0648    8.8672 C   0  0  0  0  0  0  0  0  0  0  0  0
   -3.3195    1.8683    9.8915 O   0  0  0  0  0  0  0  0  0  0  0  0
   -3.6377    1.3737   11.1905 C   0  0  0  0  0  0  0  0  0  0  0  0
   -3.7974    2.4863    7.6122 C   0  0  0  0  0  0  0  0  0  0  0  0
   -4.6944    2.7108    6.5654 C   0  0  0  0  0  0  0  0  0  0  0  0
  1  3  4  0
  1 14  4  0
  1  2  1  0
  3  4  4  0
  4  5  4  0
  5  6  4  0
  5 22  1  0
  6  7  1  0
  6 14  4  0
  7  8  1  0
  8  9  4  0
  8 12  4  0
  9 10  4  0
 10 11  4  0
 11 12  4  0
 12 13  1  0
 13 14  1  0
 13 15  1  6
 15 16  4  0
 15 20  4  0
 16 17  4  0
 17 18  4  0
 17 21  1  0
 18 19  4  0
 19 20  4  0
 23 24  1  0
 24 25  3  0
 23 26  4  0
 26 27  1  0
 26 28  4  0
 28 29  4  0
 29 30  1  0
 29 31  4  0
 31 32  1  0
 32 33  4  0
 33 34  4  0
 34 35  4  0
 35 36  1  0
 36 37  1  0
 35 38  4  0
 38 39  4  0
 39 32  4  0
  2 23  4  0
  2 31  4  0
M  CHG  1  28   1
M  END
$$$$

     RDKit          3D

 46 52  0  0  0  0  0  0  0  0999 V2000
   -7.6410    4.9930    6.8080 C   0  0  0  0  0  0  0  0  0  1  0  0
   -7.7310    4.0530    5.7140 C   0  0  0  0  0  0  0  0  0  2  0  0
   -6.4520    5.6300    6.8680 N   0  0  0  0  0  0  0  0  0  0  0  0
   -6.2260    6.5240    7.8670 N   0  0  0  0  0  0  0  0  0  0  0  0
   -7.1930    6.7500    8.7820 C   0  0  0  0  0  0  0  0  0  0  0  0
   -8.4240    6.1170    8.7580 C   0  0  0  0  0  0  0  0  0  0  0  0
   -9.3950    6.3570    9.7450 N   0  0  0  0  0  0  0  0  0  0  0  0
  -10.5620    5.6840    9.7600 C   0  0  0  0  0  0  0  0  0  0  0  0
  -11.5770    5.6820   10.5960 N   0  0  0  0  0  0  0  0  0  0  0  0
  -12.4690    4.7490   10.1080 N   0  0  0  0  0  0  0  0  0  0  0  0
  -12.0160    4.1880    8.9920 N   0  0  0  0  0  0  0  0  0  0  0  0
  -10.8400    4.7900    8.7610 N   0  0  0  0  0  0  0  0  0  0  0  0
   -9.9950    4.4790    7.6090 C   0  0  0  0  0  0  0  0  0  0  0  0
   -8.6630    5.2070    7.7200 C   0  0  0  0  0  0  0  0  0  0  0  0
  -10.7490    4.8610    6.3730 C   0  0  0  0  0  0  0  0  0  0  0  0
  -11.0350    6.2020    6.1170 C   0  0  0  0  0  0  0  0  0  0  0  0
  -11.7370    6.5580    4.9650 C   0  0  0  0  0  0  0  0  0  0  0  0
  -12.1550    5.5730    4.0710 C   0  0  0  0  0  0  0  0  0  0  0  0
  -11.8700    4.2310    4.3270 C   0  0  0  0  0  0  0  0  0  0  0  0
  -11.1660    3.8760    5.4790 C   0  0  0  0  0  0  0  0  0  0  0  0
  -12.0160    7.8660    4.7150 O   0  0  0  0  0  0  0  0  0  0  0  0
   -6.8990    7.6510    9.7710 O   0  0  0  0  0  0  0  0  0  0  0  0
   -6.7960    3.1147    5.3951 N   0  0  0  0  0  0  0  0  0  0  0  0
   -7.1274    2.2995    4.3696 C   0  0  0  0  0  0  0  0  0  0  0  0
   -6.2659    1.2466    3.9144 N   0  0  0  0  0  0  0  0  0  0  0  0
   -6.4417    0.5200    2.6869 C   0  0  0  0  0  0  0  0  0  0  0  0
   -7.3774    0.8069    1.8936 O   0  0  0  0  0  0  0  0  0  0  0  0
   -5.5039   -0.5945    2.3316 C   0  0  0  0  0  0  0  0  0  0  0  0
   -4.1156   -0.1404    2.3915 N   0  0  0  0  0  0  0  0  0  0  0  0
   -3.5149    0.9087    1.6548 C   0  0  0  0  0  0  0  0  0  0  0  0
   -4.1582    1.7204    0.9364 O   0  0  0  0  0  0  0  0  0  0  0  0
   -2.1041    0.9531    1.8115 N   0  0  0  0  0  0  0  0  0  0  0  0
   -1.6891   -0.1655    2.6723 C   0  0  0  0  0  0  0  0  0  0  0  0
   -1.0184    0.3847    3.9576 C   0  0  0  0  0  0  0  0  0  0  0  0
    0.3145    1.0871    3.6962 C   0  0  0  0  0  0  0  0  0  0  0  0
   -0.8034   -1.1679    1.9226 C   0  0  0  0  0  0  0  0  0  0  0  0
   -0.4531   -0.9866    0.5653 C   0  0  0  0  0  0  0  0  0  0  0  0
    0.3523   -1.9207   -0.0951 C   0  0  0  0  0  0  0  0  0  0  0  0
    0.8146   -3.0512    0.5793 C   0  0  0  0  0  0  0  0  0  0  0  0
    0.4709   -3.2532    1.9164 C   0  0  0  0  0  0  0  0  0  0  0  0
   -0.3293   -2.3209    2.5848 C   0  0  0  0  0  0  0  0  0  0  0  0
   -3.0193   -0.8036    3.0119 C   0  0  0  0  0  0  0  0  0  0  0  0
   -3.1627   -1.7983    3.7727 O   0  0  0  0  0  0  0  0  0  0  0  0
   -8.6714    2.6406    3.7837 S   0  0  0  0  0  0  0  0  0  0  0  0
   -8.9185    3.9017    4.8695 C   0  0  0  0  0  0  0  0  0  0  0  0
  -10.1537    4.7453    4.9077 C   0  0  0  0  0  0  0  0  0  0  0  0
  1  3  4  0
  1 14  4  0
  1  2  1  0
  3  4  4  0
  4  5  4  0
  5  6  4  0
  5 22  1  0
  6  7  1  0
  6 14  4  0
  7  8  1  0
  8  9  4  0
  8 12  4  0
  9 10  4  0
 10 11  4  0
 11 12  4  0
 12 13  1  0
 13 14  1  0
 13 15  1  6
 15 16  4  0
 15 20  4  0
 16 17  4  0
 17 18  4  0
 17 21  1  0
 18 19  4  0
 19 20  4  0
 23 24  4  0
 24 25  1  0
 25 26  1  0
 26 27  2  0
 26 28  1  0
 28 29  1  0
 29 30  1  0
 30 31  2  0
 30 32  1  0
 32 33  1  0
 33 34  1  0
 34 35  1  0
 33 36  1  0
 36 37  4  0
 37 38  4  0
 38 39  4  0
 39 40  4  0
 40 41  4  0
 33 42  1  0
 42 43  2  0
 24 44  4  0
 44 45  4  0
 45 46  1  0
 42 29  1  0
 41 36  4  0
  2 23  4  0
  2 45  4  0
M  END
$$$$

     RDKit          3D

 46 52  0  0  0  0  0  0  0  0999 V2000
   -7.6410    4.9930    6.8080 C   0  0  0  0  0  0  0  0  0  1  0  0
   -7.7310    4.0530    5.7140 C   0  0  0  0  0  0  0  0  0  2  0  0
   -6.4520    5.6300    6.8680 N   0  0  0  0  0  0  0  0  0  0  0  0
   -6.2260    6.5240    7.8670 N   0  0  0  0  0  0  0  0  0  0  0  0
   -7.1930    6.7500    8.7820 C   0  0  0  0  0  0  0  0  0  0  0  0
   -8.4240    6.1170    8.7580 C   0  0  0  0  0  0  0  0  0  0  0  0
   -9.3950    6.3570    9.7450 N   0  0  0  0  0  0  0  0  0  0  0  0
  -10.5620    5.6840    9.7600 C   0  0  0  0  0  0  0  0  0  0  0  0
  -11.5770    5.6820   10.5960 N   0  0  0  0  0  0  0  0  0  0  0  0
  -12.4690    4.7490   10.1080 N   0  0  0  0  0  0  0  0  0  0  0  0
  -12.0160    4.1880    8.9920 N   0  0  0  0  0  0  0  0  0  0  0  0
  -10.8400    4.7900    8.7610 N   0  0  0  0  0  0  0  0  0  0  0  0
   -9.9950    4.4790    7.6090 C   0  0  0  0  0  0  0  0  0  0  0  0
   -8.6630    5.2070    7.7200 C   0  0  0  0  0  0  0  0  0  0  0  0
  -10.7490    4.8610    6.3730 C   0  0  0  0  0  0  0  0  0  0  0  0
  -11.0350    6.2020    6.1170 C   0  0  0  0  0  0  0  0  0  0  0  0
  -11.7370    6.5580    4.9650 C   0  0  0  0  0  0  0  0  0  0  0  0
  -12.1550    5.5730    4.0710 C   0  0  0  0  0  0  0  0  0  0  0  0
  -11.8700    4.2310    4.3270 C   0  0  0  0  0  0  0  0  0  0  0  0
  -11.1660    3.8760    5.4790 C   0  0  0  0  0  0  0  0  0  0  0  0
  -12.0160    7.8660    4.7150 O   0  0  0  0  0  0  0  0  0  0  0  0
   -6.8990    7.6510    9.7710 O   0  0  0  0  0  0  0  0  0  0  0  0
   -6.7560    3.1853    5.3327 N   0  0  0  0  0  0  0  0  0  0  0  0
   -7.0868    2.3555    4.3203 C   0  0  0  0  0  0  0  0  0  0  0  0
   -6.1444    1.4522    3.7285 N   0  0  0  0  0  0  0  0  0  0  0  0
   -6.4929    0.3462    2.8835 C   0  0  0  0  0  0  0  0  0  0  0  0
   -5.6887   -0.0088    1.9803 O   0  0  0  0  0  0  0  0  0  0  0  0
   -7.7745   -0.4205    3.0676 C   0  0  0  0  0  0  0  0  0  0  0  0
   -7.5219   -1.8587    3.0187 N   0  0  0  0  0  0  0  0  0  0  0  0
   -6.9088   -2.6389    4.0265 C   0  0  0  0  0  0  0  0  0  0  0  0
   -6.7452   -2.2460    5.2117 O   0  0  0  0  0  0  0  0  0  0  0  0
   -6.4829   -3.9091    3.5600 N   0  0  0  0  0  0  0  0  0  0  0  0
   -6.7608   -4.0065    2.1221 C   0  0  0  0  0  0  0  0  0  0  0  0
   -7.7523   -5.1753    1.8784 C   0  0  0  0  0  0  0  0  0  0  0  0
   -8.0217   -5.4726    0.3996 C   0  0  0  0  0  0  0  0  0  0  0  0
   -5.4313   -4.2052    1.3836 C   0  0  0  0  0  0  0  0  0  0  0  0
   -4.6531   -5.3479    1.6686 C   0  0  0  0  0  0  0  0  0  0  0  0
   -3.4360   -5.5673    1.0187 C   0  0  0  0  0  0  0  0  0  0  0  0
   -2.9695   -4.6501    0.0770 C   0  0  0  0  0  0  0  0  0  0  0  0
   -3.7176   -3.5086   -0.2134 C   0  0  0  0  0  0  0  0  0  0  0  0
   -4.9365   -3.2817    0.4327 C   0  0  0  0  0  0  0  0  0  0  0  0
   -7.4344   -2.6696    1.8520 C   0  0  0  0  0  0  0  0  0  0  0  0
   -7.8980   -2.3075    0.7368 O   0  0  0  0  0  0  0  0  0  0  0  0
   -8.6562    2.6353    3.7774 S   0  0  0  0  0  0  0  0  0  0  0  0
   -8.9396    3.8511    4.9066 C   0  0  0  0  0  0  0  0  0  0  0  0
  -10.2155    4.6271    4.9950 C   0  0  0  0  0  0  0  0  0  0  0  0
  1  3  4  0
  1 14  4  0
  1  2  1  0
  3  4  4  0
  4  5  4  0
  5  6  4  0
  5 22  1  0
  6  7  1  0
  6 14  4  0
  7  8  1  0
  8  9  4  0
  8 12  4  0
  9 10  4  0
 10 11  4  0
 11 12  4  0
 12 13  1  0
 13 14  1  0
 13 15  1  6
 15 16  4  0
 15 20  4  0
 16 17  4  0
 17 18  4  0
 17 21  1  0
 18 19  4  0
 19 20  4  0
 23 24  4  0
 24 25  1  0
 25 26  1  0
 26 27  2  0
 26 28  1  0
 28 29  1  0
 29 30  1  0
 30 31  2  0
 30 32  1  0
 32 33  1  0
 33 34  1  0
 34 35  1  0
 33 36  1  0
 36 37  4  0
 37 38  4  0
 38 39  4  0
 39 40  4  0
 40 41  4  0
 33 42  1  0
 42 43  2  0
 24 44  4  0
 44 45  4  0
 45 46  1  0
 42 29  1  0
 41 36  4  0
  2 23  4  0
  2 45  4  0
M  END
$$$$

     RDKit          3D

 29 33  0  0  0  0  0  0  0  0999 V2000
   -7.6410    4.9930    6.8080 C   0  0  0  0  0  0  0  0  0  1  0  0
   -7.7310    4.0530    5.7140 C   0  0  0  0  0  0  0  0  0  2  0  0
   -6.4520    5.6300    6.8680 N   0  0  0  0  0  0  0  0  0  0  0  0
   -6.2260    6.5240    7.8670 N   0  0  0  0  0  0  0  0  0  0  0  0
   -7.1930    6.7500    8.7820 C   0  0  0  0  0  0  0  0  0  0  0  0
   -8.4240    6.1170    8.7580 C   0  0  0  0  0  0  0  0  0  0  0  0
   -9.3950    6.3570    9.7450 N   0  0  0  0  0  0  0  0  0  0  0  0
  -10.5620    5.6840    9.7600 C   0  0  0  0  0  0  0  0  0  0  0  0
  -11.5770    5.6820   10.5960 N   0  0  0  0  0  0  0  0  0  0  0  0
  -12.4690    4.7490   10.1080 N   0  0  0  0  0  0  0  0  0  0  0  0
  -12.0160    4.1880    8.9920 N   0  0  0  0  0  0  0  0  0  0  0  0
  -10.8400    4.7900    8.7610 N   0  0  0  0  0  0  0  0  0  0  0  0
   -9.9950    4.4790    7.6090 C   0  0  0  0  0  0  0  0  0  0  0  0
   -8.6630    5.2070    7.7200 C   0  0  0  0  0  0  0  0  0  0  0  0
  -10.7490    4.8610    6.3730 C   0  0  0  0  0  0  0  0  0  0  0  0
  -11.0350    6.2020    6.1170 C   0  0  0  0  0  0  0  0  0  0  0  0
  -11.7370    6.5580    4.9650 C   0  0  0  0  0  0  0  0  0  0  0  0
  -12.1550    5.5730    4.0710 C   0  0  0  0  0  0  0  0  0  0  0  0
  -11.8700    4.2310    4.3270 C   0  0  0  0  0  0  0  0  0  0  0  0
  -11.1660    3.8760    5.4790 C   0  0  0  0  0  0  0  0  0  0  0  0
  -12.0160    7.8660    4.7150 O   0  0  0  0  0  0  0  0  0  0  0  0
   -6.8990    7.6510    9.7710 O   0  0  0  0  0  0  0  0  0  0  0  0
   -8.8497    3.8970    4.7971 C   0  0  0  0  0  0  0  0  0  0  0  0
  -10.0812    4.7439    4.7601 C   0  0  0  0  0  0  0  0  0  0  0  0
   -8.6234    2.8836    3.9381 N   0  0  0  0  0  0  0  0  0  0  0  0
   -7.4493    2.3529    4.2423 N   0  0  0  0  0  0  0  0  0  0  0  0
   -6.8761    1.2147    3.5328 C   0  0  0  0  0  0  0  0  0  0  0  0
   -6.9177    2.9924    5.3067 C   0  0  0  0  0  0  0  0  0  0  0  0
   -5.5977    2.6577    5.9372 C   0  0  0  0  0  0  0  0  0  0  0  0
  1  3  4  0
  1 14  4  0
  1  2  1  0
  3  4  4  0
  4  5  4  0
  5  6  4  0
  5 22  1  0
  6  7  1  0
  6 14  4  0
  7  8  1  0
  8  9  4  0
  8 12  4  0
  9 10  4  0
 10 11  4  0
 11 12  4  0
 12 13  1  0
 13 14  1  0
 13 15  1  6
 15 16  4  0
 15 20  4  0
 16 17  4  0
 17 18  4  0
 17 21  1  0
 18 19  4  0
 19 20  4  0
 23 24  1  0
 23 25  4  0
 25 26  4  0
 26 27  1  0
 26 28  4  0
 28 29  1  0
  2 23  4  0
  2 28  4  0
M  END
$$$$

     RDKit          3D

 29 33  0  0  0  0  0  0  0  0999 V2000
   -7.6410    4.9930    6.8080 C   0  0  0  0  0  0  0  0  0  1  0  0
   -7.7310    4.0530    5.7140 C   0  0  0  0  0  0  0  0  0  2  0  0
   -6.4520    5.6300    6.8680 N   0  0  0  0  0  0  0  0  0  0  0  0
   -6.2260    6.5240    7.8670 N   0  0  0  0  0  0  0  0  0  0  0  0
   -7.1930    6.7500    8.7820 C   0  0  0  0  0  0  0  0  0  0  0  0
   -8.4240    6.1170    8.7580 C   0  0  0  0  0  0  0  0  0  0  0  0
   -9.3950    6.3570    9.7450 N   0  0  0  0  0  0  0  0  0  0  0  0
  -10.5620    5.6840    9.7600 C   0  0  0  0  0  0  0  0  0  0  0  0
  -11.5770    5.6820   10.5960 N   0  0  0  0  0  0  0  0  0  0  0  0
  -12.4690    4.7490   10.1080 N   0  0  0  0  0  0  0  0  0  0  0  0
  -12.0160    4.1880    8.9920 N   0  0  0  0  0  0  0  0  0  0  0  0
  -10.8400    4.7900    8.7610 N   0  0  0  0  0  0  0  0  0  0  0  0
   -9.9950    4.4790    7.6090 C   0  0  0  0  0  0  0  0  0  0  0  0
   -8.6630    5.2070    7.7200 C   0  0  0  0  0  0  0  0  0  0  0  0
  -10.7490    4.8610    6.3730 C   0  0  0  0  0  0  0  0  0  0  0  0
  -11.0350    6.2020    6.1170 C   0  0  0  0  0  0  0  0  0  0  0  0
  -11.7370    6.5580    4.9650 C   0  0  0  0  0  0  0  0  0  0  0  0
  -12.1550    5.5730    4.0710 C   0  0  0  0  0  0  0  0  0  0  0  0
  -11.8700    4.2310    4.3270 C   0  0  0  0  0  0  0  0  0  0  0  0
  -11.1660    3.8760    5.4790 C   0  0  0  0  0  0  0  0  0  0  0  0
  -12.0160    7.8660    4.7150 O   0  0  0  0  0  0  0  0  0  0  0  0
   -6.8990    7.6510    9.7710 O   0  0  0  0  0  0  0  0  0  0  0  0
   -6.9203    2.9836    5.3158 C   0  0  0  0  0  0  0  0  0  0  0  0
   -5.5967    2.6602    5.9310 C   0  0  0  0  0  0  0  0  0  0  0  0
   -7.4411    2.2976    4.2791 N   0  0  0  0  0  0  0  0  0  0  0  0
   -8.6155    2.8358    3.9898 N   0  0  0  0  0  0  0  0  0  0  0  0
   -9.4683    2.3634    2.9050 C   0  0  0  0  0  0  0  0  0  0  0  0
   -8.8563    3.8817    4.8100 C   0  0  0  0  0  0  0  0  0  0  0  0
  -10.0884    4.7376    4.7696 C   0  0  0  0  0  0  0  0  0  0  0  0
  1  3  4  0
  1 14  4  0
  1  2  1  0
  3  4  4  0
  4  5  4  0
  5  6  4  0
  5 22  1  0
  6  7  1  0
  6 14  4  0
  7  8  1  0
  8  9  4  0
  8 12  4  0
  9 10  4  0
 10 11  4  0
 11 12  4  0
 12 13  1  0
 13 14  1  0
 13 15  1  6
 15 16  4  0
 15 20  4  0
 16 17  4  0
 17 18  4  0
 17 21  1  0
 18 19  4  0
 19 20  4  0
 23 24  1  0
 23 25  4  0
 25 26  4  0
 26 27  1  0
 26 28  4  0
 28 29  1  0
  2 23  4  0
  2 28  4  0
M  END
$$$$

     RDKit          3D

 30 34  0  0  0  0  0  0  0  0999 V2000
   -7.6410    4.9930    6.8080 C   0  0  0  0  0  0  0  0  0  1  0  0
   -7.7310    4.0530    5.7140 C   0  0  0  0  0  0  0  0  0  2  0  0
   -6.4520    5.6300    6.8680 N   0  0  0  0  0  0  0  0  0  0  0  0
   -6.2260    6.5240    7.8670 N   0  0  0  0  0  0  0  0  0  0  0  0
   -7.1930    6.7500    8.7820 C   0  0  0  0  0  0  0  0  0  0  0  0
   -8.4240    6.1170    8.7580 C   0  0  0  0  0  0  0  0  0  0  0  0
   -9.3950    6.3570    9.7450 N   0  0  0  0  0  0  0  0  0  0  0  0
  -10.5620    5.6840    9.7600 C   0  0  0  0  0  0  0  0  0  0  0  0
  -11.5770    5.6820   10.5960 N   0  0  0  0  0  0  0  0  0  0  0  0
  -12.4690    4.7490   10.1080 N   0  0  0  0  0  0  0  0  0  0  0  0
  -12.0160    4.1880    8.9920 N   0  0  0  0  0  0  0  0  0  0  0  0
  -10.8400    4.7900    8.7610 N   0  0  0  0  0  0  0  0  0  0  0  0
   -9.9950    4.4790    7.6090 C   0  0  0  0  0  0  0  0  0  0  0  0
   -8.6630    5.2070    7.7200 C   0  0  0  0  0  0  0  0  0  0  0  0
  -10.7490    4.8610    6.3730 C   0  0  0  0  0  0  0  0  0  0  0  0
  -11.0350    6.2020    6.1170 C   0  0  0  0  0  0  0  0  0  0  0  0
  -11.7370    6.5580    4.9650 C   0  0  0  0  0  0  0  0  0  0  0  0
  -12.1550    5.5730    4.0710 C   0  0  0  0  0  0  0  0  0  0  0  0
  -11.8700    4.2310    4.3270 C   0  0  0  0  0  0  0  0  0  0  0  0
  -11.1660    3.8760    5.4790 C   0  0  0  0  0  0  0  0  0  0  0  0
  -12.0160    7.8660    4.7150 O   0  0  0  0  0  0  0  0  0  0  0  0
   -6.8990    7.6510    9.7710 O   0  0  0  0  0  0  0  0  0  0  0  0
   -7.0000    2.8460    5.6830 C   0  0  0  0  0  0  0  0  0  0  0  0
   -7.1591    1.8589    4.6982 C   0  0  0  0  0  0  0  0  0  0  0  0
   -6.2937    0.6265    4.7435 C   0  0  0  0  0  0  0  0  0  0  0  0
   -8.1530    2.0216    3.7072 C   0  0  0  0  0  0  0  0  0  0  0  0
   -8.3720    0.9796    2.6412 C   0  0  0  0  0  0  0  0  0  0  0  0
   -8.9333    3.1886    3.6978 C   0  0  0  0  0  0  0  0  0  0  0  0
   -8.7546    4.1890    4.6648 C   0  0  0  0  0  0  0  0  0  0  0  0
   -9.6153    5.4238    4.5890 C   0  0  0  0  0  0  0  0  0  0  0  0
  1  3  4  0
  1 14  4  0
  1  2  1  0
  3  4  4  0
  4  5  4  0
  5  6  4  0
  5 22  1  0
  6  7  1  0
  6 14  4  0
  7  8  1  0
  8  9  4  0
  8 12  4  0
  9 10  4  0
 10 11  4  0
 11 12  4  0
 12 13  1  0
 13 14  1  0
 13 15  1  6
 15 16  4  0
 15 20  4  0
 16 17  4  0
 17 18  4  0
 17 21  1  0
 18 19  4  0
 19 20  4  0
 23 24  4  0
 24 25  1  0
 24 26  4  0
 26 27  1  0
 26 28  4  0
 28 29  4  0
 29 30  1  0
  2 23  4  0
  2 29  4  0
M  END
$$$$

     RDKit          3D

 43 49  0  0  0  0  0  0  0  0999 V2000
   -7.6410    4.9930    6.8080 C   0  0  0  0  0  0  0  0  0  1  0  0
   -7.7310    4.0530    5.7140 C   0  0  0  0  0  0  0  0  0  2  0  0
   -6.4520    5.6300    6.8680 N   0  0  0  0  0  0  0  0  0  0  0  0
   -6.2260    6.5240    7.8670 N   0  0  0  0  0  0  0  0  0  0  0  0
   -7.1930    6.7500    8.7820 C   0  0  0  0  0  0  0  0  0  0  0  0
   -8.4240    6.1170    8.7580 C   0  0  0  0  0  0  0  0  0  0  0  0
   -9.3950    6.3570    9.7450 N   0  0  0  0  0  0  0  0  0  0  0  0
  -10.5620    5.6840    9.7600 C   0  0  0  0  0  0  0  0  0  0  0  0
  -11.5770    5.6820   10.5960 N   0  0  0  0  0  0  0  0  0  0  0  0
  -12.4690    4.7490   10.1080 N   0  0  0  0  0  0  0  0  0  0  0  0
  -12.0160    4.1880    8.9920 N   0  0  0  0  0  0  0  0  0  0  0  0
  -10.8400    4.7900    8.7610 N   0  0  0  0  0  0  0  0  0  0  0  0
   -9.9950    4.4790    7.6090 C   0  0  0  0  0  0  0  0  0  0  0  0
   -8.6630    5.2070    7.7200 C   0  0  0  0  0  0  0  0  0  0  0  0
  -10.7490    4.8610    6.3730 C   0  0  0  0  0  0  0  0  0  0  0  0
  -11.0350    6.2020    6.1170 C   0  0  0  0  0  0  0  0  0  0  0  0
  -11.7370    6.5580    4.9650 C   0  0  0  0  0  0  0  0  0  0  0  0
  -12.1550    5.5730    4.0710 C   0  0  0  0  0  0  0  0  0  0  0  0
  -11.8700    4.2310    4.3270 C   0  0  0  0  0  0  0  0  0  0  0  0
  -11.1660    3.8760    5.4790 C   0  0  0  0  0  0  0  0  0  0  0  0
  -12.0160    7.8660    4.7150 O   0  0  0  0  0  0  0  0  0  0  0  0
   -6.8990    7.6510    9.7710 O   0  0  0  0  0  0  0  0  0  0  0  0
   -6.9291    2.9524    5.6584 N   0  0  0  0  0  0  0  0  0  0  0  0
   -7.0158    1.9631    4.7370 C   0  0  0  0  0  0  0  0  0  0  0  0
   -6.0991    0.9056    4.7756 C   0  0  0  0  0  0  0  0  0  0  0  0
   -6.1835   -0.1300    3.8442 C   0  0  0  0  0  0  0  0  0  0  0  0
   -7.1814   -0.1134    2.8687 C   0  0  0  0  0  0  0  0  0  0  0  0
   -8.0984    0.9396    2.8177 C   0  0  0  0  0  0  0  0  0  0  0  0
   -8.0340    1.9915    3.7583 C   0  0  0  0  0  0  0  0  0  0  0  0
   -8.9387    3.0816    3.7468 C   0  0  0  0  0  0  0  0  0  0  0  0
  -10.0452    3.1230    2.7643 C   0  0  0  0  0  0  0  0  0  0  0  0
  -10.0425    4.0014    1.8592 O   0  0  0  0  0  0  0  0  0  0  0  0
  -11.1132    2.1679    2.8465 N   0  0  0  0  0  0  0  0  0  0  0  0
  -12.2795    2.2207    1.9546 C   0  0  0  0  0  0  0  0  0  0  0  0
  -13.4280    1.3803    2.5621 C   0  0  0  0  0  0  0  0  0  0  0  0
  -14.6351    1.1019    1.6495 C   0  0  0  0  0  0  0  0  0  0  0  0
  -15.4343    2.3389    1.2020 C   0  0  0  0  0  0  0  0  0  0  0  0
  -14.7559    3.3005    0.2014 C   0  0  0  0  0  0  0  0  0  0  0  0
  -13.8784    2.6352   -0.8804 C   0  0  0  0  0  0  0  0  0  0  0  0
  -12.3685    2.7029   -0.5846 C   0  0  0  0  0  0  0  0  0  0  0  0
  -11.8754    1.7582    0.5272 C   0  0  0  0  0  0  0  0  0  0  0  0
   -8.8006    4.1191    4.7054 C   0  0  0  0  0  0  0  0  0  0  0  0
   -9.7434    5.3054    4.6791 C   0  0  0  0  0  0  0  0  0  0  0  0
  1  3  4  0
  1 14  4  0
  1  2  1  0
  3  4  4  0
  4  5  4  0
  5  6  4  0
  5 22  1  0
  6  7  1  0
  6 14  4  0
  7  8  1  0
  8  9  4  0
  8 12  4  0
  9 10  4  0
 10 11  4  0
 11 12  4  0
 12 13  1  0
 13 14  1  0
 13 15  1  6
 15 16  4  0
 15 20  4  0
 16 17  4  0
 17 18  4  0
 17 21  1  0
 18 19  4  0
 19 20  4  0
 23 24  4  0
 24 25  4  0
 25 26  4  0
 26 27  4  0
 27 28  4  0
 28 29  4  0
 29 30  4  0
 30 31  1  0
 31 32  2  0
 31 33  1  0
 33 34  1  0
 34 35  1  0
 35 36  1  0
 36 37  1  0
 37 38  1  0
 38 39  1  0
 39 40  1  0
 40 41  1  0
 30 42  4  0
 42 43  1  0
 29 24  4  0
 41 34  1  0
  2 23  4  0
  2 42  4  0
M  END
$$$$

     RDKit          3D

 43 49  0  0  0  0  0  0  0  0999 V2000
   -7.6410    4.9930    6.8080 C   0  0  0  0  0  0  0  0  0  1  0  0
   -7.7310    4.0530    5.7140 C   0  0  0  0  0  0  0  0  0  2  0  0
   -6.4520    5.6300    6.8680 N   0  0  0  0  0  0  0  0  0  0  0  0
   -6.2260    6.5240    7.8670 N   0  0  0  0  0  0  0  0  0  0  0  0
   -7.1930    6.7500    8.7820 C   0  0  0  0  0  0  0  0  0  0  0  0
   -8.4240    6.1170    8.7580 C   0  0  0  0  0  0  0  0  0  0  0  0
   -9.3950    6.3570    9.7450 N   0  0  0  0  0  0  0  0  0  0  0  0
  -10.5620    5.6840    9.7600 C   0  0  0  0  0  0  0  0  0  0  0  0
  -11.5770    5.6820   10.5960 N   0  0  0  0  0  0  0  0  0  0  0  0
  -12.4690    4.7490   10.1080 N   0  0  0  0  0  0  0  0  0  0  0  0
  -12.0160    4.1880    8.9920 N   0  0  0  0  0  0  0  0  0  0  0  0
  -10.8400    4.7900    8.7610 N   0  0  0  0  0  0  0  0  0  0  0  0
   -9.9950    4.4790    7.6090 C   0  0  0  0  0  0  0  0  0  0  0  0
   -8.6630    5.2070    7.7200 C   0  0  0  0  0  0  0  0  0  0  0  0
  -10.7490    4.8610    6.3730 C   0  0  0  0  0  0  0  0  0  0  0  0
  -11.0350    6.2020    6.1170 C   0  0  0  0  0  0  0  0  0  0  0  0
  -11.7370    6.5580    4.9650 C   0  0  0  0  0  0  0  0  0  0  0  0
  -12.1550    5.5730    4.0710 C   0  0  0  0  0  0  0  0  0  0  0  0
  -11.8700    4.2310    4.3270 C   0  0  0  0  0  0  0  0  0  0  0  0
  -11.1660    3.8760    5.4790 C   0  0  0  0  0  0  0  0  0  0  0  0
  -12.0160    7.8660    4.7150 O   0  0  0  0  0  0  0  0  0  0  0  0
   -6.8990    7.6510    9.7710 O   0  0  0  0  0  0  0  0  0  0  0  0
   -7.0038    2.8971    5.7242 N   0  0  0  0  0  0  0  0  0  0  0  0
   -7.0774    1.9186    4.7904 C   0  0  0  0  0  0  0  0  0  0  0  0
   -6.2390    0.8024    4.8962 C   0  0  0  0  0  0  0  0  0  0  0  0
   -6.2954   -0.2111    3.9387 C   0  0  0  0  0  0  0  0  0  0  0  0
   -7.1838   -0.1111    2.8670 C   0  0  0  0  0  0  0  0  0  0  0  0
   -8.0251    0.9992    2.7510 C   0  0  0  0  0  0  0  0  0  0  0  0
   -7.9920    2.0271    3.7193 C   0  0  0  0  0  0  0  0  0  0  0  0
   -8.8206    3.1728    3.6441 C   0  0  0  0  0  0  0  0  0  0  0  0
   -9.7989    3.3199    2.5429 C   0  0  0  0  0  0  0  0  0  0  0  0
   -9.6370    4.2335    1.6904 O   0  0  0  0  0  0  0  0  0  0  0  0
  -10.9210    2.4244    2.4564 N   0  0  0  0  0  0  0  0  0  0  0  0
  -11.9779    2.5155    1.4391 C   0  0  0  0  0  0  0  0  0  0  0  0
  -11.3689    2.4066    0.0165 C   0  0  0  0  0  0  0  0  0  0  0  0
  -12.2381    1.6123   -0.9896 C   0  0  0  0  0  0  0  0  0  0  0  0
  -13.1397    2.4966   -1.8702 C   0  0  0  0  0  0  0  0  0  0  0  0
  -14.5826    2.6678   -1.3551 C   0  0  0  0  0  0  0  0  0  0  0  0
  -14.7366    3.0296    0.1325 C   0  0  0  0  0  0  0  0  0  0  0  0
  -13.8233    4.1853    0.5915 C   0  0  0  0  0  0  0  0  0  0  0  0
  -12.8204    3.7938    1.6907 C   0  0  0  0  0  0  0  0  0  0  0  0
   -8.7154    4.1827    4.6356 C   0  0  0  0  0  0  0  0  0  0  0  0
   -9.5562    5.4391    4.5223 C   0  0  0  0  0  0  0  0  0  0  0  0
  1  3  4  0
  1 14  4  0
  1  2  1  0
  3  4  4  0
  4  5  4  0
  5  6  4  0
  5 22  1  0
  6  7  1  0
  6 14  4  0
  7  8  1  0
  8  9  4  0
  8 12  4  0
  9 10  4  0
 10 11  4  0
 11 12  4  0
 12 13  1  0
 13 14  1  0
 13 15  1  6
 15 16  4  0
 15 20  4  0
 16 17  4  0
 17 18  4  0
 17 21  1  0
 18 19  4  0
 19 20  4  0
 23 24  4  0
 24 25  4  0
 25 26  4  0
 26 27  4  0
 27 28  4  0
 28 29  4  0
 29 30  4  0
 30 31  1  0
 31 32  2  0
 31 33  1  0
 33 34  1  0
 34 35  1  0
 35 36  1  0
 36 37  1  0
 37 38  1  0
 38 39  1  0
 39 40  1  0
 40 41  1  0
 30 42  4  0
 42 43  1  0
 29 24  4  0
 41 34  1  0
  2 23  4  0
  2 42  4  0
M  END
$$$$

     RDKit          3D

 46 53  0  0  0  0  0  0  0  0999 V2000
   -7.6410    4.9930    6.8080 C   0  0  0  0  0  0  0  0  0  1  0  0
   -7.7310    4.0530    5.7140 C   0  0  0  0  0  0  0  0  0  2  0  0
   -6.4520    5.6300    6.8680 N   0  0  0  0  0  0  0  0  0  0  0  0
   -6.2260    6.5240    7.8670 N   0  0  0  0  0  0  0  0  0  0  0  0
   -7.1930    6.7500    8.7820 C   0  0  0  0  0  0  0  0  0  0  0  0
   -8.4240    6.1170    8.7580 C   0  0  0  0  0  0  0  0  0  0  0  0
   -9.3950    6.3570    9.7450 N   0  0  0  0  0  0  0  0  0  0  0  0
  -10.5620    5.6840    9.7600 C   0  0  0  0  0  0  0  0  0  0  0  0
  -11.5770    5.6820   10.5960 N   0  0  0  0  0  0  0  0  0  0  0  0
  -12.4690    4.7490   10.1080 N   0  0  0  0  0  0  0  0  0  0  0  0
  -12.0160    4.1880    8.9920 N   0  0  0  0  0  0  0  0  0  0  0  0
  -10.8400    4.7900    8.7610 N   0  0  0  0  0  0  0  0  0  0  0  0
   -9.9950    4.4790    7.6090 C   0  0  0  0  0  0  0  0  0  0  0  0
   -8.6630    5.2070    7.7200 C   0  0  0  0  0  0  0  0  0  0  0  0
  -10.7490    4.8610    6.3730 C   0  0  0  0  0  0  0  0  0  0  0  0
  -11.0350    6.2020    6.1170 C   0  0  0  0  0  0  0  0  0  0  0  0
  -11.7370    6.5580    4.9650 C   0  0  0  0  0  0  0  0  0  0  0  0
  -12.1550    5.5730    4.0710 C   0  0  0  0  0  0  0  0  0  0  0  0
  -11.8700    4.2310    4.3270 C   0  0  0  0  0  0  0  0  0  0  0  0
  -11.1660    3.8760    5.4790 C   0  0  0  0  0  0  0  0  0  0  0  0
  -12.0160    7.8660    4.7150 O   0  0  0  0  0  0  0  0  0  0  0  0
   -6.8990    7.6510    9.7710 O   0  0  0  0  0  0  0  0  0  0  0  0
   -6.8982    3.0294    5.4215 N   0  0  0  0  0  0  0  0  0  0  0  0
   -7.3199    2.3734    4.3477 N   0  0  0  0  0  0  0  0  0  0  0  0
   -6.6018    1.2685    3.7604 C   0  0  0  0  0  0  0  0  0  0  0  0
   -5.5413    0.6666    4.4689 C   0  0  0  0  0  0  0  0  0  0  0  0
   -4.8246   -0.3951    3.9085 C   0  0  0  0  0  0  0  0  0  0  0  0
   -5.1425   -0.8570    2.6296 C   0  0  0  0  0  0  0  0  0  0  0  0
   -6.1921   -0.2710    1.9158 C   0  0  0  0  0  0  0  0  0  0  0  0
   -6.9207    0.7824    2.4772 C   0  0  0  0  0  0  0  0  0  0  0  0
   -8.4716    2.9267    3.9104 C   0  0  0  0  0  0  0  0  0  0  0  0
   -8.8049    3.9702    4.7487 C   0  0  0  0  0  0  0  0  0  0  0  0
   -9.9104    4.9709    4.5268 C   0  0  0  0  0  0  0  0  0  0  0  0
   -9.3924    6.2714    4.0687 N   0  0  0  0  0  0  0  0  0  0  0  0
   -8.8286    6.1850    2.7141 C   0  0  0  0  0  0  0  0  0  0  0  0
   -8.3610    7.5279    2.2445 C   0  0  0  0  0  0  0  0  0  0  0  0
   -7.3264    8.2585    2.7933 C   0  0  0  0  0  0  0  0  0  0  0  0
   -7.2381    9.4087    2.0382 C   0  0  0  0  0  0  0  0  0  0  0  0
   -8.2243    9.3028    1.0756 C   0  0  0  0  0  0  0  0  0  1  0  0
   -8.5161   10.2885    0.0257 C   0  0  0  0  0  0  0  0  0  2  0  0
   -9.5686   10.1439   -0.8745 C   0  0  0  0  0  0  0  0  0  0  0  0
   -9.5589   11.4774   -1.8983 S   0  0  0  0  0  0  0  0  0  0  0  0
   -8.2128   12.1671   -1.1652 C   0  0  0  0  0  0  0  0  0  0  0  0
   -7.6244   13.4884   -1.5317 C   0  0  0  0  0  0  0  0  0  0  0  0
   -7.7701   11.4170   -0.1334 N   0  0  0  0  0  0  0  0  0  0  0  0
   -8.8772    8.1727    1.2241 O   0  0  0  0  0  0  0  0  0  0  0  0
  1  3  4  0
  1 14  4  0
  1  2  1  0
  3  4  4  0
  4  5  4  0
  5  6  4  0
  5 22  1  0
  6  7  1  0
  6 14  4  0
  7  8  1  0
  8  9  4  0
  8 12  4  0
  9 10  4  0
 10 11  4  0
 11 12  4  0
 12 13  1  0
 13 14  1  0
 13 15  1  6
 15 16  4  0
 15 20  4  0
 16 17  4  0
 17 18  4  0
 17 21  1  0
 18 19  4  0
 19 20  4  0
 23 24  4  0
 24 25  1  0
 25 26  4  0
 26 27  4  0
 27 28  4  0
 28 29  4  0
 29 30  4  0
 24 31  4  0
 31 32  4  0
 32 33  1  0
 33 34  1  0
 34 35  1  0
 35 36  1  0
 36 37  4  0
 37 38  4  0
 38 39  4  0
 39 40  1  0
 40 41  4  0
 41 42  4  0
 42 43  4  0
 43 44  1  0
 43 45  4  0
 39 46  4  0
 46 36  4  0
 30 25  4  0
 45 40  4  0
  2 23  4  0
  2 32  4  0
M  CHG  1  34   1
M  END
$$$$

     RDKit          3D

 44 50  0  0  0  0  0  0  0  0999 V2000
   -7.6410    4.9930    6.8080 C   0  0  0  0  0  0  0  0  0  1  0  0
   -7.7310    4.0530    5.7140 C   0  0  0  0  0  0  0  0  0  2  0  0
   -6.4520    5.6300    6.8680 N   0  0  0  0  0  0  0  0  0  0  0  0
   -6.2260    6.5240    7.8670 N   0  0  0  0  0  0  0  0  0  0  0  0
   -7.1930    6.7500    8.7820 C   0  0  0  0  0  0  0  0  0  0  0  0
   -8.4240    6.1170    8.7580 C   0  0  0  0  0  0  0  0  0  0  0  0
   -9.3950    6.3570    9.7450 N   0  0  0  0  0  0  0  0  0  0  0  0
  -10.5620    5.6840    9.7600 C   0  0  0  0  0  0  0  0  0  0  0  0
  -11.5770    5.6820   10.5960 N   0  0  0  0  0  0  0  0  0  0  0  0
  -12.4690    4.7490   10.1080 N   0  0  0  0  0  0  0  0  0  0  0  0
  -12.0160    4.1880    8.9920 N   0  0  0  0  0  0  0  0  0  0  0  0
  -10.8400    4.7900    8.7610 N   0  0  0  0  0  0  0  0  0  0  0  0
   -9.9950    4.4790    7.6090 C   0  0  0  0  0  0  0  0  0  0  0  0
   -8.6630    5.2070    7.7200 C   0  0  0  0  0  0  0  0  0  0  0  0
  -10.7490    4.8610    6.3730 C   0  0  0  0  0  0  0  0  0  0  0  0
  -11.0350    6.2020    6.1170 C   0  0  0  0  0  0  0  0  0  0  0  0
  -11.7370    6.5580    4.9650 C   0  0  0  0  0  0  0  0  0  0  0  0
  -12.1550    5.5730    4.0710 C   0  0  0  0  0  0  0  0  0  0  0  0
  -11.8700    4.2310    4.3270 C   0  0  0  0  0  0  0  0  0  0  0  0
  -11.1660    3.8760    5.4790 C   0  0  0  0  0  0  0  0  0  0  0  0
  -12.0160    7.8660    4.7150 O   0  0  0  0  0  0  0  0  0  0  0  0
   -6.8990    7.6510    9.7710 O   0  0  0  0  0  0  0  0  0  0  0  0
   -6.9627    2.9790    5.4366 N   0  0  0  0  0  0  0  0  0  0  0  0
   -7.4677    2.2936    4.4212 N   0  0  0  0  0  0  0  0  0  0  0  0
   -8.6102    2.9097    4.0634 C   0  0  0  0  0  0  0  0  0  0  0  0
   -9.6662    2.3430    2.7270 S   0  0  0  0  0  0  0  0  0  0  0  0
   -8.8298    3.3217    1.4252 C   0  0  0  0  0  0  0  0  0  0  0  0
   -7.5784    2.5981    0.9249 C   0  0  0  0  0  0  0  0  0  0  0  0
   -9.7863    3.5639    0.2900 C   0  0  0  0  0  0  0  0  0  0  0  0
  -10.0284    4.7513   -0.0576 O   0  0  0  0  0  0  0  0  0  0  0  0
  -10.4067    2.4566   -0.3893 N   0  0  0  0  0  0  0  0  0  0  0  0
  -11.3629    2.5772   -1.4588 C   0  0  0  0  0  0  0  0  0  0  0  0
  -12.0913    4.0279   -1.9805 S   0  0  0  0  0  0  0  0  0  0  0  0
  -13.0733    3.2622   -3.0987 C   0  0  0  0  0  0  0  0  0  0  0  0
  -12.8607    1.9329   -3.1006 C   0  0  0  0  0  0  0  0  0  0  0  0
  -11.8918    1.4953   -2.1890 C   0  0  0  0  0  0  0  0  0  0  0  0
  -11.4228    0.0991   -2.0930 C   0  0  0  0  0  0  0  0  0  0  0  0
  -12.3442   -0.9898   -2.1580 N   0  0  0  0  0  0  0  0  0  0  0  0
  -10.1943   -0.1410   -1.9582 O   0  0  0  0  0  0  0  0  0  0  0  0
  -13.5866    1.2601   -4.2013 C   0  0  0  0  0  0  0  0  0  0  0  0
  -14.3120    2.4305   -4.9174 C   0  0  0  0  0  0  0  0  0  0  0  0
  -13.9550    3.7411   -4.1739 C   0  0  0  0  0  0  0  0  0  0  0  0
   -8.8554    3.9866    4.8330 N   0  0  0  0  0  0  0  0  0  0  0  0
   -9.9620    4.9328    4.7112 C   0  0  0  0  0  0  0  0  0  0  0  0
  1  3  4  0
  1 14  4  0
  1  2  1  0
  3  4  4  0
  4  5  4  0
  5  6  4  0
  5 22  1  0
  6  7  1  0
  6 14  4  0
  7  8  1  0
  8  9  4  0
  8 12  4  0
  9 10  4  0
 10 11  4  0
 11 12  4  0
 12 13  1  0
 13 14  1  0
 13 15  1  6
 15 16  4  0
 15 20  4  0
 16 17  4  0
 17 18  4  0
 17 21  1  0
 18 19  4  0
 19 20  4  0
 23 24  4  0
 24 25  4  0
 25 26  1  0
 26 27  1  0
 27 28  1  0
 27 29  1  0
 29 30  2  0
 29 31  1  0
 31 32  1  0
 32 33  4  0
 33 34  4  0
 34 35  4  0
 35 36  4  0
 36 37  1  0
 37 38  1  0
 37 39  2  0
 35 40  1  0
 40 41  1  0
 41 42  1  0
 25 43  4  0
 43 44  1  0
 36 32  4  0
 42 34  1  0
  2 23  4  0
  2 43  4  0
M  END
$$$$

     RDKit          3D

 44 50  0  0  0  0  0  0  0  0999 V2000
   -7.6410    4.9930    6.8080 C   0  0  0  0  0  0  0  0  0  1  0  0
   -7.7310    4.0530    5.7140 C   0  0  0  0  0  0  0  0  0  2  0  0
   -6.4520    5.6300    6.8680 N   0  0  0  0  0  0  0  0  0  0  0  0
   -6.2260    6.5240    7.8670 N   0  0  0  0  0  0  0  0  0  0  0  0
   -7.1930    6.7500    8.7820 C   0  0  0  0  0  0  0  0  0  0  0  0
   -8.4240    6.1170    8.7580 C   0  0  0  0  0  0  0  0  0  0  0  0
   -9.3950    6.3570    9.7450 N   0  0  0  0  0  0  0  0  0  0  0  0
  -10.5620    5.6840    9.7600 C   0  0  0  0  0  0  0  0  0  0  0  0
  -11.5770    5.6820   10.5960 N   0  0  0  0  0  0  0  0  0  0  0  0
  -12.4690    4.7490   10.1080 N   0  0  0  0  0  0  0  0  0  0  0  0
  -12.0160    4.1880    8.9920 N   0  0  0  0  0  0  0  0  0  0  0  0
  -10.8400    4.7900    8.7610 N   0  0  0  0  0  0  0  0  0  0  0  0
   -9.9950    4.4790    7.6090 C   0  0  0  0  0  0  0  0  0  0  0  0
   -8.6630    5.2070    7.7200 C   0  0  0  0  0  0  0  0  0  0  0  0
  -10.7490    4.8610    6.3730 C   0  0  0  0  0  0  0  0  0  0  0  0
  -11.0350    6.2020    6.1170 C   0  0  0  0  0  0  0  0  0  0  0  0
  -11.7370    6.5580    4.9650 C   0  0  0  0  0  0  0  0  0  0  0  0
  -12.1550    5.5730    4.0710 C   0  0  0  0  0  0  0  0  0  0  0  0
  -11.8700    4.2310    4.3270 C   0  0  0  0  0  0  0  0  0  0  0  0
  -11.1660    3.8760    5.4790 C   0  0  0  0  0  0  0  0  0  0  0  0
  -12.0160    7.8660    4.7150 O   0  0  0  0  0  0  0  0  0  0  0  0
   -6.8990    7.6510    9.7710 O   0  0  0  0  0  0  0  0  0  0  0  0
   -6.8173    3.1252    5.3599 N   0  0  0  0  0  0  0  0  0  0  0  0
   -7.2381    2.4596    4.2959 N   0  0  0  0  0  0  0  0  0  0  0  0
   -8.4518    2.9473    3.9851 C   0  0  0  0  0  0  0  0  0  0  0  0
   -9.3717    2.4255    2.5222 S   0  0  0  0  0  0  0  0  0  0  0  0
   -8.8379    3.9167    4.8433 N   0  0  0  0  0  0  0  0  0  0  0  0
   -9.9968    4.8081    4.7101 C   0  0  0  0  0  0  0  0  0  0  0  0
  -11.2742    4.0216    4.7032 C   0  0  0  0  0  0  0  0  0  0  0  0
  -12.0702    4.1413    3.7324 O   0  0  0  0  0  0  0  0  0  0  0  0
  -11.5820    3.1278    5.7819 N   0  0  0  0  0  0  0  0  0  0  0  0
  -12.6797    2.1683    5.7068 C   0  0  0  0  0  0  0  0  0  0  0  0
  -12.3615    1.1082    4.7013 C   0  0  0  0  0  0  0  0  0  0  0  0
  -11.3276    0.1989    4.7907 C   0  0  0  0  0  0  0  0  0  0  0  0
  -11.3981   -0.5602    3.6427 C   0  0  0  0  0  0  0  0  0  0  0  0
  -12.4747   -0.0638    2.9218 C   0  0  0  0  0  0  0  0  0  1  0  0
  -12.9616   -0.5360    1.6051 C   0  0  0  0  0  0  0  0  0  2  0  0
  -12.3457   -1.6096    0.9335 C   0  0  0  0  0  0  0  0  0  0  0  0
  -12.8235   -2.0335   -0.3105 C   0  0  0  0  0  0  0  0  0  0  0  0
  -13.9179   -1.3935   -0.8981 C   0  0  0  0  0  0  0  0  0  0  0  0
  -14.5676   -1.9755   -2.5972 Br  0  0  0  0  0  0  0  0  0  0  0  0
  -14.5362   -0.3269   -0.2403 C   0  0  0  0  0  0  0  0  0  0  0  0
  -14.0623    0.1002    1.0038 C   0  0  0  0  0  0  0  0  0  0  0  0
  -13.0265    0.9292    3.5847 O   0  0  0  0  0  0  0  0  0  0  0  0
  1  3  4  0
  1 14  4  0
  1  2  1  0
  3  4  4  0
  4  5  4  0
  5  6  4  0
  5 22  1  0
  6  7  1  0
  6 14  4  0
  7  8  1  0
  8  9  4  0
  8 12  4  0
  9 10  4  0
 10 11  4  0
 11 12  4  0
 12 13  1  0
 13 14  1  0
 13 15  1  6
 15 16  4  0
 15 20  4  0
 16 17  4  0
 17 18  4  0
 17 21  1  0
 18 19  4  0
 19 20  4  0
 23 24  4  0
 24 25  4  0
 25 26  1  0
 25 27  4  0
 27 28  1  0
 28 29  1  0
 29 30  2  0
 29 31  1  0
 31 32  1  0
 32 33  1  0
 33 34  4  0
 34 35  4  0
 35 36  4  0
 36 37  1  0
 37 38  4  0
 38 39  4  0
 39 40  4  0
 40 41  1  0
 40 42  4  0
 42 43  4  0
 36 44  4  0
 44 33  4  0
 43 37  4  0
  2 23  4  0
  2 27  4  0
M  CHG  1  26  -1
M  END
$$$$

     RDKit          3D

 44 50  0  0  0  0  0  0  0  0999 V2000
   -7.6410    4.9930    6.8080 C   0  0  0  0  0  0  0  0  0  1  0  0
   -7.7310    4.0530    5.7140 C   0  0  0  0  0  0  0  0  0  2  0  0
   -6.4520    5.6300    6.8680 N   0  0  0  0  0  0  0  0  0  0  0  0
   -6.2260    6.5240    7.8670 N   0  0  0  0  0  0  0  0  0  0  0  0
   -7.1930    6.7500    8.7820 C   0  0  0  0  0  0  0  0  0  0  0  0
   -8.4240    6.1170    8.7580 C   0  0  0  0  0  0  0  0  0  0  0  0
   -9.3950    6.3570    9.7450 N   0  0  0  0  0  0  0  0  0  0  0  0
  -10.5620    5.6840    9.7600 C   0  0  0  0  0  0  0  0  0  0  0  0
  -11.5770    5.6820   10.5960 N   0  0  0  0  0  0  0  0  0  0  0  0
  -12.4690    4.7490   10.1080 N   0  0  0  0  0  0  0  0  0  0  0  0
  -12.0160    4.1880    8.9920 N   0  0  0  0  0  0  0  0  0  0  0  0
  -10.8400    4.7900    8.7610 N   0  0  0  0  0  0  0  0  0  0  0  0
   -9.9950    4.4790    7.6090 C   0  0  0  0  0  0  0  0  0  0  0  0
   -8.6630    5.2070    7.7200 C   0  0  0  0  0  0  0  0  0  0  0  0
  -10.7490    4.8610    6.3730 C   0  0  0  0  0  0  0  0  0  0  0  0
  -11.0350    6.2020    6.1170 C   0  0  0  0  0  0  0  0  0  0  0  0
  -11.7370    6.5580    4.9650 C   0  0  0  0  0  0  0  0  0  0  0  0
  -12.1550    5.5730    4.0710 C   0  0  0  0  0  0  0  0  0  0  0  0
  -11.8700    4.2310    4.3270 C   0  0  0  0  0  0  0  0  0  0  0  0
  -11.1660    3.8760    5.4790 C   0  0  0  0  0  0  0  0  0  0  0  0
  -12.0160    7.8660    4.7150 O   0  0  0  0  0  0  0  0  0  0  0  0
   -6.8990    7.6510    9.7710 O   0  0  0  0  0  0  0  0  0  0  0  0
   -6.8692    3.0550    5.4189 N   0  0  0  0  0  0  0  0  0  0  0  0
   -7.3138    2.3709    4.3757 N   0  0  0  0  0  0  0  0  0  0  0  0
   -8.4900    2.9191    4.0224 C   0  0  0  0  0  0  0  0  0  0  0  0
   -9.4528    2.3660    2.6006 S   0  0  0  0  0  0  0  0  0  0  0  0
   -8.8235    3.9489    4.8262 N   0  0  0  0  0  0  0  0  0  0  0  0
   -9.9274    4.8953    4.6357 C   0  0  0  0  0  0  0  0  0  0  0  0
   -9.6210    5.8367    3.5095 C   0  0  0  0  0  0  0  0  0  0  0  0
  -10.3643    5.8484    2.4908 O   0  0  0  0  0  0  0  0  0  0  0  0
   -8.4954    6.7222    3.5941 N   0  0  0  0  0  0  0  0  0  0  0  0
   -8.1648    7.6688    2.5326 C   0  0  0  0  0  0  0  0  0  0  0  0
   -9.1661    8.7785    2.4998 C   0  0  0  0  0  0  0  0  0  0  0  0
   -9.3692    9.7095    3.4983 C   0  0  0  0  0  0  0  0  0  0  0  0
  -10.3791   10.5296    3.0441 C   0  0  0  0  0  0  0  0  0  0  0  0
  -10.7321   10.0437    1.7932 C   0  0  0  0  0  0  0  0  0  1  0  0
  -11.7790   10.5768    0.8914 C   0  0  0  0  0  0  0  0  0  2  0  0
  -12.0902    9.8878   -0.2941 C   0  0  0  0  0  0  0  0  0  0  0  0
  -13.0755   10.3728   -1.1591 C   0  0  0  0  0  0  0  0  0  0  0  0
  -13.7595   11.5515   -0.8521 C   0  0  0  0  0  0  0  0  0  0  0  0
  -15.0992   12.2169   -2.0386 Br  0  0  0  0  0  0  0  0  0  0  0  0
  -13.4550   12.2491    0.3208 C   0  0  0  0  0  0  0  0  0  0  0  0
  -12.4729   11.7651    1.1906 C   0  0  0  0  0  0  0  0  0  0  0  0
   -9.9877    8.9997    1.5012 O   0  0  0  0  0  0  0  0  0  0  0  0
  1  3  4  0
  1 14  4  0
  1  2  1  0
  3  4  4  0
  4  5  4  0
  5  6  4  0
  5 22  1  0
  6  7  1  0
  6 14  4  0
  7  8  1  0
  8  9  4  0
  8 12  4  0
  9 10  4  0
 10 11  4  0
 11 12  4  0
 12 13  1  0
 13 14  1  0
 13 15  1  6
 15 16  4  0
 15 20  4  0
 16 17  4  0
 17 18  4  0
 17 21  1  0
 18 19  4  0
 19 20  4  0
 23 24  4  0
 24 25  4  0
 25 26  1  0
 25 27  4  0
 27 28  1  0
 28 29  1  0
 29 30  2  0
 29 31  1  0
 31 32  1  0
 32 33  1  0
 33 34  4  0
 34 35  4  0
 35 36  4  0
 36 37  1  0
 37 38  4  0
 38 39  4  0
 39 40  4  0
 40 41  1  0
 40 42  4  0
 42 43  4  0
 36 44  4  0
 44 33  4  0
 43 37  4  0
  2 23  4  0
  2 27  4  0
M  CHG  1  26  -1
M  END
$$$$

     RDKit          3D

 44 50  0  0  0  0  0  0  0  0999 V2000
   -7.6410    4.9930    6.8080 C   0  0  0  0  0  0  0  0  0  1  0  0
   -7.7310    4.0530    5.7140 C   0  0  0  0  0  0  0  0  0  2  0  0
   -6.4520    5.6300    6.8680 N   0  0  0  0  0  0  0  0  0  0  0  0
   -6.2260    6.5240    7.8670 N   0  0  0  0  0  0  0  0  0  0  0  0
   -7.1930    6.7500    8.7820 C   0  0  0  0  0  0  0  0  0  0  0  0
   -8.4240    6.1170    8.7580 C   0  0  0  0  0  0  0  0  0  0  0  0
   -9.3950    6.3570    9.7450 N   0  0  0  0  0  0  0  0  0  0  0  0
  -10.5620    5.6840    9.7600 C   0  0  0  0  0  0  0  0  0  0  0  0
  -11.5770    5.6820   10.5960 N   0  0  0  0  0  0  0  0  0  0  0  0
  -12.4690    4.7490   10.1080 N   0  0  0  0  0  0  0  0  0  0  0  0
  -12.0160    4.1880    8.9920 N   0  0  0  0  0  0  0  0  0  0  0  0
  -10.8400    4.7900    8.7610 N   0  0  0  0  0  0  0  0  0  0  0  0
   -9.9950    4.4790    7.6090 C   0  0  0  0  0  0  0  0  0  0  0  0
   -8.6630    5.2070    7.7200 C   0  0  0  0  0  0  0  0  0  0  0  0
  -10.7490    4.8610    6.3730 C   0  0  0  0  0  0  0  0  0  0  0  0
  -11.0350    6.2020    6.1170 C   0  0  0  0  0  0  0  0  0  0  0  0
  -11.7370    6.5580    4.9650 C   0  0  0  0  0  0  0  0  0  0  0  0
  -12.1550    5.5730    4.0710 C   0  0  0  0  0  0  0  0  0  0  0  0
  -11.8700    4.2310    4.3270 C   0  0  0  0  0  0  0  0  0  0  0  0
  -11.1660    3.8760    5.4790 C   0  0  0  0  0  0  0  0  0  0  0  0
  -12.0160    7.8660    4.7150 O   0  0  0  0  0  0  0  0  0  0  0  0
   -6.8990    7.6510    9.7710 O   0  0  0  0  0  0  0  0  0  0  0  0
   -6.8635    3.0623    5.4118 N   0  0  0  0  0  0  0  0  0  0  0  0
   -7.2951    2.3971    4.3510 N   0  0  0  0  0  0  0  0  0  0  0  0
   -8.4683    2.9500    3.9941 C   0  0  0  0  0  0  0  0  0  0  0  0
   -9.4031    2.4297    2.5424 S   0  0  0  0  0  0  0  0  0  0  0  0
   -8.8153    3.9620    4.8154 N   0  0  0  0  0  0  0  0  0  0  0  0
   -9.8977    4.9309    4.6142 C   0  0  0  0  0  0  0  0  0  0  0  0
   -9.4547    6.0137    3.6649 C   0  0  0  0  0  0  0  0  0  0  0  0
   -8.4219    6.6776    3.9487 O   0  0  0  0  0  0  0  0  0  0  0  0
  -10.1696    6.3268    2.4586 N   0  0  0  0  0  0  0  0  0  0  0  0
  -11.4768    5.7587    2.1259 C   0  0  0  0  0  0  0  0  0  0  0  0
  -12.0106    6.3541    0.8606 C   0  0  0  0  0  0  0  0  0  0  0  0
  -11.4720    6.1886   -0.3991 C   0  0  0  0  0  0  0  0  0  0  0  0
  -12.2842    6.9070   -1.2500 C   0  0  0  0  0  0  0  0  0  0  0  0
  -13.2718    7.4679   -0.4529 C   0  0  0  0  0  0  0  0  0  1  0  0
  -14.3909    8.3335   -0.8928 C   0  0  0  0  0  0  0  0  0  2  0  0
  -15.2949    8.8364    0.0600 C   0  0  0  0  0  0  0  0  0  0  0  0
  -16.3579    9.6551   -0.3329 C   0  0  0  0  0  0  0  0  0  0  0  0
  -16.5317    9.9805   -1.6805 C   0  0  0  0  0  0  0  0  0  0  0  0
  -17.9846   11.0990   -2.2149 Br  0  0  0  0  0  0  0  0  0  0  0  0
  -15.6407    9.4858   -2.6366 C   0  0  0  0  0  0  0  0  0  0  0  0
  -14.5757    8.6670   -2.2484 C   0  0  0  0  0  0  0  0  0  0  0  0
  -13.0769    7.1165    0.7995 O   0  0  0  0  0  0  0  0  0  0  0  0
  1  3  4  0
  1 14  4  0
  1  2  1  0
  3  4  4  0
  4  5  4  0
  5  6  4  0
  5 22  1  0
  6  7  1  0
  6 14  4  0
  7  8  1  0
  8  9  4  0
  8 12  4  0
  9 10  4  0
 10 11  4  0
 11 12  4  0
 12 13  1  0
 13 14  1  0
 13 15  1  6
 15 16  4  0
 15 20  4  0
 16 17  4  0
 17 18  4  0
 17 21  1  0
 18 19  4  0
 19 20  4  0
 23 24  4  0
 24 25  4  0
 25 26  1  0
 25 27  4  0
 27 28  1  0
 28 29  1  0
 29 30  2  0
 29 31  1  0
 31 32  1  0
 32 33  1  0
 33 34  4  0
 34 35  4  0
 35 36  4  0
 36 37  1  0
 37 38  4  0
 38 39  4  0
 39 40  4  0
 40 41  1  0
 40 42  4  0
 42 43  4  0
 36 44  4  0
 44 33  4  0
 43 37  4  0
  2 23  4  0
  2 27  4  0
M  CHG  1  26  -1
M  END
$$$$

     RDKit          3D

 36 42  0  0  0  0  0  0  0  0999 V2000
   -7.6410    4.9930    6.8080 C   0  0  0  0  0  0  0  0  0  1  0  0
   -7.7310    4.0530    5.7140 C   0  0  0  0  0  0  0  0  0  2  0  0
   -6.4520    5.6300    6.8680 N   0  0  0  0  0  0  0  0  0  0  0  0
   -6.2260    6.5240    7.8670 N   0  0  0  0  0  0  0  0  0  0  0  0
   -7.1930    6.7500    8.7820 C   0  0  0  0  0  0  0  0  0  0  0  0
   -8.4240    6.1170    8.7580 C   0  0  0  0  0  0  0  0  0  0  0  0
   -9.3950    6.3570    9.7450 N   0  0  0  0  0  0  0  0  0  0  0  0
  -10.5620    5.6840    9.7600 C   0  0  0  0  0  0  0  0  0  0  0  0
  -11.5770    5.6820   10.5960 N   0  0  0  0  0  0  0  0  0  0  0  0
  -12.4690    4.7490   10.1080 N   0  0  0  0  0  0  0  0  0  0  0  0
  -12.0160    4.1880    8.9920 N   0  0  0  0  0  0  0  0  0  0  0  0
  -10.8400    4.7900    8.7610 N   0  0  0  0  0  0  0  0  0  0  0  0
   -9.9950    4.4790    7.6090 C   0  0  0  0  0  0  0  0  0  0  0  0
   -8.6630    5.2070    7.7200 C   0  0  0  0  0  0  0  0  0  0  0  0
  -10.7490    4.8610    6.3730 C   0  0  0  0  0  0  0  0  0  0  0  0
  -11.0350    6.2020    6.1170 C   0  0  0  0  0  0  0  0  0  0  0  0
  -11.7370    6.5580    4.9650 C   0  0  0  0  0  0  0  0  0  0  0  0
  -12.1550    5.5730    4.0710 C   0  0  0  0  0  0  0  0  0  0  0  0
  -11.8700    4.2310    4.3270 C   0  0  0  0  0  0  0  0  0  0  0  0
  -11.1660    3.8760    5.4790 C   0  0  0  0  0  0  0  0  0  0  0  0
  -12.0160    7.8660    4.7150 O   0  0  0  0  0  0  0  0  0  0  0  0
   -6.8990    7.6510    9.7710 O   0  0  0  0  0  0  0  0  0  0  0  0
   -6.7665    3.1123    5.3645 C   0  0  0  0  0  0  0  0  0  0  0  0
   -6.9424    2.1585    4.3409 C   0  0  0  0  0  0  0  0  0  0  0  0
   -8.1901    2.1621    3.6683 C   0  0  0  0  0  0  0  0  0  0  0  0
   -8.4481    1.2451    2.6501 C   0  0  0  0  0  0  0  0  0  0  0  0
   -7.4851    0.3143    2.2768 C   0  0  0  0  0  0  0  0  0  0  0  0
   -6.2398    0.2856    2.9162 C   0  0  0  0  0  0  0  0  0  0  0  0
   -5.2822   -0.6613    2.5184 C   0  0  0  0  0  0  0  0  0  0  0  0
   -4.0352   -0.7052    3.1378 C   0  0  0  0  0  0  0  0  0  0  0  0
   -3.7312    0.1914    4.1589 C   0  0  0  0  0  0  0  0  0  0  0  0
   -4.6708    1.1401    4.5705 C   0  0  0  0  0  0  0  0  0  0  0  0
   -5.9466    1.2093    3.9600 C   0  0  0  0  0  0  0  0  0  0  0  0
   -9.1336    3.0412    3.9893 O   0  0  0  0  0  0  0  0  0  0  0  0
   -8.9854    3.9481    4.9461 C   0  0  0  0  0  0  0  0  0  0  0  0
   -9.9157    4.7716    5.1552 O   0  0  0  0  0  0  0  0  0  0  0  0
  1  3  4  0
  1 14  4  0
  1  2  1  0
  3  4  4  0
  4  5  4  0
  5  6  4  0
  5 22  1  0
  6  7  1  0
  6 14  4  0
  7  8  1  0
  8  9  4  0
  8 12  4  0
  9 10  4  0
 10 11  4  0
 11 12  4  0
 12 13  1  0
 13 14  1  0
 13 15  1  6
 15 16  4  0
 15 20  4  0
 16 17  4  0
 17 18  4  0
 17 21  1  0
 18 19  4  0
 19 20  4  0
 23 24  4  0
 24 25  4  0
 25 26  4  0
 26 27  4  0
 27 28  4  0
 28 29  4  0
 29 30  4  0
 30 31  4  0
 31 32  4  0
 32 33  4  0
 25 34  4  0
 34 35  4  0
 35 36  2  0
 33 24  4  0
 33 28  4  0
  2 23  4  0
  2 35  4  0
M  END
$$$$

     RDKit          3D

 45 51  0  0  0  0  0  0  0  0999 V2000
   -7.6410    4.9930    6.8080 C   0  0  0  0  0  0  0  0  0  1  0  0
   -7.7310    4.0530    5.7140 C   0  0  0  0  0  0  0  0  0  2  0  0
   -6.4520    5.6300    6.8680 N   0  0  0  0  0  0  0  0  0  0  0  0
   -6.2260    6.5240    7.8670 N   0  0  0  0  0  0  0  0  0  0  0  0
   -7.1930    6.7500    8.7820 C   0  0  0  0  0  0  0  0  0  0  0  0
   -8.4240    6.1170    8.7580 C   0  0  0  0  0  0  0  0  0  0  0  0
   -9.3950    6.3570    9.7450 N   0  0  0  0  0  0  0  0  0  0  0  0
  -10.5620    5.6840    9.7600 C   0  0  0  0  0  0  0  0  0  0  0  0
  -11.5770    5.6820   10.5960 N   0  0  0  0  0  0  0  0  0  0  0  0
  -12.4690    4.7490   10.1080 N   0  0  0  0  0  0  0  0  0  0  0  0
  -12.0160    4.1880    8.9920 N   0  0  0  0  0  0  0  0  0  0  0  0
  -10.8400    4.7900    8.7610 N   0  0  0  0  0  0  0  0  0  0  0  0
   -9.9950    4.4790    7.6090 C   0  0  0  0  0  0  0  0  0  0  0  0
   -8.6630    5.2070    7.7200 C   0  0  0  0  0  0  0  0  0  0  0  0
  -10.7490    4.8610    6.3730 C   0  0  0  0  0  0  0  0  0  0  0  0
  -11.0350    6.2020    6.1170 C   0  0  0  0  0  0  0  0  0  0  0  0
  -11.7370    6.5580    4.9650 C   0  0  0  0  0  0  0  0  0  0  0  0
  -12.1550    5.5730    4.0710 C   0  0  0  0  0  0  0  0  0  0  0  0
  -11.8700    4.2310    4.3270 C   0  0  0  0  0  0  0  0  0  0  0  0
  -11.1660    3.8760    5.4790 C   0  0  0  0  0  0  0  0  0  0  0  0
  -12.0160    7.8660    4.7150 O   0  0  0  0  0  0  0  0  0  0  0  0
   -6.8990    7.6510    9.7710 O   0  0  0  0  0  0  0  0  0  0  0  0
   -6.8081    3.1773    5.1471 C   0  0  0  0  0  0  0  0  0  0  0  0
   -7.3386    2.4227    4.1589 N   0  0  0  0  0  0  0  0  0  0  0  0
   -8.6216    2.7346    4.0682 N   0  0  0  0  0  0  0  0  0  0  0  0
   -8.9184    3.6893    4.9604 C   0  0  0  0  0  0  0  0  0  0  0  0
  -10.1995    4.3171    4.9936 N   0  0  0  0  0  0  0  0  0  0  0  0
  -11.2351    3.7612    4.1757 C   0  0  0  0  0  0  0  0  0  0  0  0
  -12.3524    4.3370    4.0984 O   0  0  0  0  0  0  0  0  0  0  0  0
  -11.0111    2.4469    3.4639 C   0  0  0  0  0  0  0  0  0  0  0  0
   -9.5352    2.2607    3.0258 C   0  0  0  0  0  0  0  0  0  0  0  0
   -9.2600    2.9966    1.7396 C   0  0  0  0  0  0  0  0  0  0  0  0
   -9.3725    4.2527    1.7060 O   0  0  0  0  0  0  0  0  0  0  0  0
   -8.8271    2.2756    0.5749 N   0  0  0  0  0  0  0  0  0  0  0  0
   -8.7961    2.8349   -0.7494 C   0  0  0  0  0  0  0  0  0  0  0  0
   -9.7629    3.7612   -1.1771 C   0  0  0  0  0  0  0  0  0  0  0  0
   -9.7242    4.2716   -2.4777 C   0  0  0  0  0  0  0  0  0  0  0  0
   -8.7341    3.8599   -3.3769 C   0  0  0  0  0  0  0  0  0  0  0  0
   -8.7445    4.4068   -4.6703 O   0  0  0  0  0  0  0  0  0  0  0  0
   -7.8177    4.0896   -5.7066 C   0  0  0  0  0  0  0  0  0  0  0  0
   -6.5335    4.4249   -5.3166 F   0  0  0  0  0  0  0  0  0  0  0  0
   -7.8822    2.7409   -6.0081 F   0  0  0  0  0  0  0  0  0  0  0  0
   -8.1435    4.8148   -6.8362 F   0  0  0  0  0  0  0  0  0  0  0  0
   -7.7768    2.9173   -2.9558 C   0  0  0  0  0  0  0  0  0  0  0  0
   -7.8161    2.4055   -1.6552 C   0  0  0  0  0  0  0  0  0  0  0  0
  1  3  4  0
  1 14  4  0
  1  2  1  0
  3  4  4  0
  4  5  4  0
  5  6  4  0
  5 22  1  0
  6  7  1  0
  6 14  4  0
  7  8  1  0
  8  9  4  0
  8 12  4  0
  9 10  4  0
 10 11  4  0
 11 12  4  0
 12 13  1  0
 13 14  1  0
 13 15  1  6
 15 16  4  0
 15 20  4  0
 16 17  4  0
 17 18  4  0
 17 21  1  0
 18 19  4  0
 19 20  4  0
 23 24  4  0
 24 25  4  0
 25 26  4  0
 26 27  1  0
 27 28  1  0
 28 29  2  0
 28 30  1  0
 30 31  1  0
 31 32  1  0
 32 33  2  0
 32 34  1  0
 34 35  1  0
 35 36  4  0
 36 37  4  0
 37 38  4  0
 38 39  1  0
 39 40  1  0
 40 41  1  0
 40 42  1  0
 40 43  1  0
 38 44  4  0
 44 45  4  0
 45 35  4  0
 31 25  1  0
  2 23  4  0
  2 26  4  0
M  END
$$$$

     RDKit          3D

 45 51  0  0  0  0  0  0  0  0999 V2000
   -7.6410    4.9930    6.8080 C   0  0  0  0  0  0  0  0  0  1  0  0
   -7.7310    4.0530    5.7140 C   0  0  0  0  0  0  0  0  0  2  0  0
   -6.4520    5.6300    6.8680 N   0  0  0  0  0  0  0  0  0  0  0  0
   -6.2260    6.5240    7.8670 N   0  0  0  0  0  0  0  0  0  0  0  0
   -7.1930    6.7500    8.7820 C   0  0  0  0  0  0  0  0  0  0  0  0
   -8.4240    6.1170    8.7580 C   0  0  0  0  0  0  0  0  0  0  0  0
   -9.3950    6.3570    9.7450 N   0  0  0  0  0  0  0  0  0  0  0  0
  -10.5620    5.6840    9.7600 C   0  0  0  0  0  0  0  0  0  0  0  0
  -11.5770    5.6820   10.5960 N   0  0  0  0  0  0  0  0  0  0  0  0
  -12.4690    4.7490   10.1080 N   0  0  0  0  0  0  0  0  0  0  0  0
  -12.0160    4.1880    8.9920 N   0  0  0  0  0  0  0  0  0  0  0  0
  -10.8400    4.7900    8.7610 N   0  0  0  0  0  0  0  0  0  0  0  0
   -9.9950    4.4790    7.6090 C   0  0  0  0  0  0  0  0  0  0  0  0
   -8.6630    5.2070    7.7200 C   0  0  0  0  0  0  0  0  0  0  0  0
  -10.7490    4.8610    6.3730 C   0  0  0  0  0  0  0  0  0  0  0  0
  -11.0350    6.2020    6.1170 C   0  0  0  0  0  0  0  0  0  0  0  0
  -11.7370    6.5580    4.9650 C   0  0  0  0  0  0  0  0  0  0  0  0
  -12.1550    5.5730    4.0710 C   0  0  0  0  0  0  0  0  0  0  0  0
  -11.8700    4.2310    4.3270 C   0  0  0  0  0  0  0  0  0  0  0  0
  -11.1660    3.8760    5.4790 C   0  0  0  0  0  0  0  0  0  0  0  0
  -12.0160    7.8660    4.7150 O   0  0  0  0  0  0  0  0  0  0  0  0
   -6.8990    7.6510    9.7710 O   0  0  0  0  0  0  0  0  0  0  0  0
   -6.8071    3.1858    5.1388 C   0  0  0  0  0  0  0  0  0  0  0  0
   -7.3374    2.4395    4.1449 N   0  0  0  0  0  0  0  0  0  0  0  0
   -8.6248    2.7393    4.0635 N   0  0  0  0  0  0  0  0  0  0  0  0
   -8.9191    3.6911    4.9600 C   0  0  0  0  0  0  0  0  0  0  0  0
  -10.1929    4.3352    4.9830 N   0  0  0  0  0  0  0  0  0  0  0  0
  -11.2260    3.7944    4.1522 C   0  0  0  0  0  0  0  0  0  0  0  0
  -12.3331    4.3874    4.0577 O   0  0  0  0  0  0  0  0  0  0  0  0
  -11.0104    2.4756    3.4500 C   0  0  0  0  0  0  0  0  0  0  0  0
   -9.5382    2.3134    2.9957 C   0  0  0  0  0  0  0  0  0  0  0  0
   -9.2698    0.8786    2.6008 C   0  0  0  0  0  0  0  0  0  0  0  0
   -9.3165   -0.0173    3.4867 O   0  0  0  0  0  0  0  0  0  0  0  0
   -9.0487    0.4910    1.2347 N   0  0  0  0  0  0  0  0  0  0  0  0
   -8.5025    1.3466    0.2188 C   0  0  0  0  0  0  0  0  0  0  0  0
   -7.4275    2.2064    0.4936 C   0  0  0  0  0  0  0  0  0  0  0  0
   -6.8918    3.0109   -0.5154 C   0  0  0  0  0  0  0  0  0  0  0  0
   -7.4045    2.9583   -1.8166 C   0  0  0  0  0  0  0  0  0  0  0  0
   -6.8300    3.7919   -2.7899 O   0  0  0  0  0  0  0  0  0  0  0  0
   -7.2363    3.8674   -4.1545 C   0  0  0  0  0  0  0  0  0  0  0  0
   -6.4534    4.8019   -4.8037 F   0  0  0  0  0  0  0  0  0  0  0  0
   -8.5605    4.2601   -4.2366 F   0  0  0  0  0  0  0  0  0  0  0  0
   -7.0697    2.6402   -4.7705 F   0  0  0  0  0  0  0  0  0  0  0  0
   -8.4650    2.0754   -2.0990 C   0  0  0  0  0  0  0  0  0  0  0  0
   -9.0006    1.2712   -1.0886 C   0  0  0  0  0  0  0  0  0  0  0  0
  1  3  4  0
  1 14  4  0
  1  2  1  0
  3  4  4  0
  4  5  4  0
  5  6  4  0
  5 22  1  0
  6  7  1  0
  6 14  4  0
  7  8  1  0
  8  9  4  0
  8 12  4  0
  9 10  4  0
 10 11  4  0
 11 12  4  0
 12 13  1  0
 13 14  1  0
 13 15  1  6
 15 16  4  0
 15 20  4  0
 16 17  4  0
 17 18  4  0
 17 21  1  0
 18 19  4  0
 19 20  4  0
 23 24  4  0
 24 25  4  0
 25 26  4  0
 26 27  1  0
 27 28  1  0
 28 29  2  0
 28 30  1  0
 30 31  1  0
 31 32  1  0
 32 33  2  0
 32 34  1  0
 34 35  1  0
 35 36  4  0
 36 37  4  0
 37 38  4  0
 38 39  1  0
 39 40  1  0
 40 41  1  0
 40 42  1  0
 40 43  1  0
 38 44  4  0
 44 45  4  0
 45 35  4  0
 31 25  1  0
  2 23  4  0
  2 26  4  0
M  END
$$$$

     RDKit          3D

 30 35  0  0  0  0  0  0  0  0999 V2000
   -7.6410    4.9930    6.8080 C   0  0  0  0  0  0  0  0  0  1  0  0
   -7.7310    4.0530    5.7140 C   0  0  0  0  0  0  0  0  0  2  0  0
   -6.4520    5.6300    6.8680 N   0  0  0  0  0  0  0  0  0  0  0  0
   -6.2260    6.5240    7.8670 N   0  0  0  0  0  0  0  0  0  0  0  0
   -7.1930    6.7500    8.7820 C   0  0  0  0  0  0  0  0  0  0  0  0
   -8.4240    6.1170    8.7580 C   0  0  0  0  0  0  0  0  0  0  0  0
   -9.3950    6.3570    9.7450 N   0  0  0  0  0  0  0  0  0  0  0  0
  -10.5620    5.6840    9.7600 C   0  0  0  0  0  0  0  0  0  0  0  0
  -11.5770    5.6820   10.5960 N   0  0  0  0  0  0  0  0  0  0  0  0
  -12.4690    4.7490   10.1080 N   0  0  0  0  0  0  0  0  0  0  0  0
  -12.0160    4.1880    8.9920 N   0  0  0  0  0  0  0  0  0  0  0  0
  -10.8400    4.7900    8.7610 N   0  0  0  0  0  0  0  0  0  0  0  0
   -9.9950    4.4790    7.6090 C   0  0  0  0  0  0  0  0  0  0  0  0
   -8.6630    5.2070    7.7200 C   0  0  0  0  0  0  0  0  0  0  0  0
  -10.7490    4.8610    6.3730 C   0  0  0  0  0  0  0  0  0  0  0  0
  -11.0350    6.2020    6.1170 C   0  0  0  0  0  0  0  0  0  0  0  0
  -11.7370    6.5580    4.9650 C   0  0  0  0  0  0  0  0  0  0  0  0
  -12.1550    5.5730    4.0710 C   0  0  0  0  0  0  0  0  0  0  0  0
  -11.8700    4.2310    4.3270 C   0  0  0  0  0  0  0  0  0  0  0  0
  -11.1660    3.8760    5.4790 C   0  0  0  0  0  0  0  0  0  0  0  0
  -12.0160    7.8660    4.7150 O   0  0  0  0  0  0  0  0  0  0  0  0
   -6.8990    7.6510    9.7710 O   0  0  0  0  0  0  0  0  0  0  0  0
   -6.9601    2.9025    5.5393 C   0  0  0  0  0  0  0  0  0  0  0  0
   -7.4550    2.0453    4.1778 S   0  0  0  0  0  0  0  0  0  0  0  0
   -8.7306    3.0613    3.7790 C   0  0  0  0  0  0  0  0  0  0  0  0
   -8.7701    4.1151    4.6857 C   0  0  0  0  0  0  0  0  0  0  0  0
   -9.7861    5.2214    4.5638 C   0  0  0  0  0  0  0  0  0  0  0  0
  -10.3189    5.3323    3.1256 C   0  0  0  0  0  0  0  0  0  0  0  0
  -10.7435    3.9550    2.5875 C   0  0  0  0  0  0  0  0  0  0  0  0
   -9.5499    2.9877    2.5256 C   0  0  0  0  0  0  0  0  0  0  0  0
  1  3  4  0
  1 14  4  0
  1  2  1  0
  3  4  4  0
  4  5  4  0
  5  6  4  0
  5 22  1  0
  6  7  1  0
  6 14  4  0
  7  8  1  0
  8  9  4  0
  8 12  4  0
  9 10  4  0
 10 11  4  0
 11 12  4  0
 12 13  1  0
 13 14  1  0
 13 15  1  6
 15 16  4  0
 15 20  4  0
 16 17  4  0
 17 18  4  0
 17 21  1  0
 18 19  4  0
 19 20  4  0
 23 24  4  0
 24 25  4  0
 25 26  4  0
 26 27  1  0
 27 28  1  0
 28 29  1  0
 29 30  1  0
 30 25  1  0
  2 23  4  0
  2 26  4  0
M  END
$$$$

     RDKit          3D

 28 32  0  0  0  0  0  0  0  0999 V2000
   -7.6410    4.9930    6.8080 C   0  0  0  0  0  0  0  0  0  1  0  0
   -7.7310    4.0530    5.7140 C   0  0  0  0  0  0  0  0  0  2  0  0
   -6.4520    5.6300    6.8680 N   0  0  0  0  0  0  0  0  0  0  0  0
   -6.2260    6.5240    7.8670 N   0  0  0  0  0  0  0  0  0  0  0  0
   -7.1930    6.7500    8.7820 C   0  0  0  0  0  0  0  0  0  0  0  0
   -8.4240    6.1170    8.7580 C   0  0  0  0  0  0  0  0  0  0  0  0
   -9.3950    6.3570    9.7450 N   0  0  0  0  0  0  0  0  0  0  0  0
  -10.5620    5.6840    9.7600 C   0  0  0  0  0  0  0  0  0  0  0  0
  -11.5770    5.6820   10.5960 N   0  0  0  0  0  0  0  0  0  0  0  0
  -12.4690    4.7490   10.1080 N   0  0  0  0  0  0  0  0  0  0  0  0
  -12.0160    4.1880    8.9920 N   0  0  0  0  0  0  0  0  0  0  0  0
  -10.8400    4.7900    8.7610 N   0  0  0  0  0  0  0  0  0  0  0  0
   -9.9950    4.4790    7.6090 C   0  0  0  0  0  0  0  0  0  0  0  0
   -8.6630    5.2070    7.7200 C   0  0  0  0  0  0  0  0  0  0  0  0
  -10.7490    4.8610    6.3730 C   0  0  0  0  0  0  0  0  0  0  0  0
  -11.0350    6.2020    6.1170 C   0  0  0  0  0  0  0  0  0  0  0  0
  -11.7370    6.5580    4.9650 C   0  0  0  0  0  0  0  0  0  0  0  0
  -12.1550    5.5730    4.0710 C   0  0  0  0  0  0  0  0  0  0  0  0
  -11.8700    4.2310    4.3270 C   0  0  0  0  0  0  0  0  0  0  0  0
  -11.1660    3.8760    5.4790 C   0  0  0  0  0  0  0  0  0  0  0  0
  -12.0160    7.8660    4.7150 O   0  0  0  0  0  0  0  0  0  0  0  0
   -6.8990    7.6510    9.7710 O   0  0  0  0  0  0  0  0  0  0  0  0
   -6.9035    2.9269    5.5658 C   0  0  0  0  0  0  0  0  0  0  0  0
   -7.0867    1.9756    4.5576 C   0  0  0  0  0  0  0  0  0  0  0  0
   -8.1530    2.1012    3.6636 C   0  0  0  0  0  0  0  0  0  0  0  0
   -9.0322    3.1833    3.7700 C   0  0  0  0  0  0  0  0  0  0  0  0
   -8.8524    4.1415    4.7748 C   0  0  0  0  0  0  0  0  0  0  0  0
   -9.7091    5.2371    4.8331 O   0  0  0  0  0  0  0  0  0  0  0  0
  1  3  4  0
  1 14  4  0
  1  2  1  0
  3  4  4  0
  4  5  4  0
  5  6  4  0
  5 22  1  0
  6  7  1  0
  6 14  4  0
  7  8  1  0
  8  9  4  0
  8 12  4  0
  9 10  4  0
 10 11  4  0
 11 12  4  0
 12 13  1  0
 13 14  1  0
 13 15  1  6
 15 16  4  0
 15 20  4  0
 16 17  4  0
 17 18  4  0
 17 21  1  0
 18 19  4  0
 19 20  4  0
 23 24  4  0
 24 25  4  0
 25 26  4  0
 26 27  4  0
 27 28  1  0
  2 23  4  0
  2 27  4  0
M  CHG  1  28  -1
M  END
$$$$

     RDKit          3D

 34 39  0  0  0  0  0  0  0  0999 V2000
   -7.6410    4.9930    6.8080 C   0  0  0  0  0  0  0  0  0  1  0  0
   -7.7310    4.0530    5.7140 C   0  0  0  0  0  0  0  0  0  2  0  0
   -6.4520    5.6300    6.8680 N   0  0  0  0  0  0  0  0  0  0  0  0
   -6.2260    6.5240    7.8670 N   0  0  0  0  0  0  0  0  0  0  0  0
   -7.1930    6.7500    8.7820 C   0  0  0  0  0  0  0  0  0  0  0  0
   -8.4240    6.1170    8.7580 C   0  0  0  0  0  0  0  0  0  0  0  0
   -9.3950    6.3570    9.7450 N   0  0  0  0  0  0  0  0  0  0  0  0
  -10.5620    5.6840    9.7600 C   0  0  0  0  0  0  0  0  0  0  0  0
  -11.5770    5.6820   10.5960 N   0  0  0  0  0  0  0  0  0  0  0  0
  -12.4690    4.7490   10.1080 N   0  0  0  0  0  0  0  0  0  0  0  0
  -12.0160    4.1880    8.9920 N   0  0  0  0  0  0  0  0  0  0  0  0
  -10.8400    4.7900    8.7610 N   0  0  0  0  0  0  0  0  0  0  0  0
   -9.9950    4.4790    7.6090 C   0  0  0  0  0  0  0  0  0  0  0  0
   -8.6630    5.2070    7.7200 C   0  0  0  0  0  0  0  0  0  0  0  0
  -10.7490    4.8610    6.3730 C   0  0  0  0  0  0  0  0  0  0  0  0
  -11.0350    6.2020    6.1170 C   0  0  0  0  0  0  0  0  0  0  0  0
  -11.7370    6.5580    4.9650 C   0  0  0  0  0  0  0  0  0  0  0  0
  -12.1550    5.5730    4.0710 C   0  0  0  0  0  0  0  0  0  0  0  0
  -11.8700    4.2310    4.3270 C   0  0  0  0  0  0  0  0  0  0  0  0
  -11.1660    3.8760    5.4790 C   0  0  0  0  0  0  0  0  0  0  0  0
  -12.0160    7.8660    4.7150 O   0  0  0  0  0  0  0  0  0  0  0  0
   -6.8990    7.6510    9.7710 O   0  0  0  0  0  0  0  0  0  0  0  0
   -6.8431    3.0765    5.3964 N   0  0  0  0  0  0  0  0  0  0  0  0
   -7.3545    2.4387    4.3249 C   0  0  0  0  0  0  0  0  0  0  0  0
   -6.7442    1.3916    3.6373 C   0  0  0  0  0  0  0  0  0  0  0  0
   -7.4126    0.8662    2.5205 C   0  0  0  0  0  0  0  0  0  0  0  0
   -8.6538    1.3962    2.1211 C   0  0  0  0  0  0  0  0  0  0  0  0
   -9.2205    2.4524    2.8491 C   0  0  0  0  0  0  0  0  0  0  0  0
   -8.5441    2.9262    3.9300 N   0  0  0  0  0  0  0  0  0  0  0  0
   -8.8396    3.9240    4.7827 C   0  0  0  0  0  0  0  0  0  0  0  0
   -9.9996    4.8808    4.6200 C   0  0  0  0  0  0  0  0  0  0  0  0
   -9.7556    5.8630    3.5384 N   0  0  0  0  0  0  0  0  0  0  0  0
  -10.9987    6.5921    3.2331 C   0  0  0  0  0  0  0  0  0  0  0  0
   -8.6969    6.8207    3.9105 C   0  0  0  0  0  0  0  0  0  0  0  0
  1  3  4  0
  1 14  4  0
  1  2  1  0
  3  4  4  0
  4  5  4  0
  5  6  4  0
  5 22  1  0
  6  7  1  0
  6 14  4  0
  7  8  1  0
  8  9  4  0
  8 12  4  0
  9 10  4  0
 10 11  4  0
 11 12  4  0
 12 13  1  0
 13 14  1  0
 13 15  1  6
 15 16  4  0
 15 20  4  0
 16 17  4  0
 17 18  4  0
 17 21  1  0
 18 19  4  0
 19 20  4  0
 23 24  4  0
 24 25  4  0
 25 26  4  0
 26 27  4  0
 27 28  4  0
 28 29  4  0
 29 30  4  0
 30 31  1  0
 31 32  1  0
 32 33  1  0
 32 34  1  0
 29 24  4  0
  2 23  4  0
  2 30  4  0
M  CHG  1  32   1
M  END
$$$$

     RDKit          3D

 34 39  0  0  0  0  0  0  0  0999 V2000
   -7.6410    4.9930    6.8080 C   0  0  0  0  0  0  0  0  0  1  0  0
   -7.7310    4.0530    5.7140 C   0  0  0  0  0  0  0  0  0  2  0  0
   -6.4520    5.6300    6.8680 N   0  0  0  0  0  0  0  0  0  0  0  0
   -6.2260    6.5240    7.8670 N   0  0  0  0  0  0  0  0  0  0  0  0
   -7.1930    6.7500    8.7820 C   0  0  0  0  0  0  0  0  0  0  0  0
   -8.4240    6.1170    8.7580 C   0  0  0  0  0  0  0  0  0  0  0  0
   -9.3950    6.3570    9.7450 N   0  0  0  0  0  0  0  0  0  0  0  0
  -10.5620    5.6840    9.7600 C   0  0  0  0  0  0  0  0  0  0  0  0
  -11.5770    5.6820   10.5960 N   0  0  0  0  0  0  0  0  0  0  0  0
  -12.4690    4.7490   10.1080 N   0  0  0  0  0  0  0  0  0  0  0  0
  -12.0160    4.1880    8.9920 N   0  0  0  0  0  0  0  0  0  0  0  0
  -10.8400    4.7900    8.7610 N   0  0  0  0  0  0  0  0  0  0  0  0
   -9.9950    4.4790    7.6090 C   0  0  0  0  0  0  0  0  0  0  0  0
   -8.6630    5.2070    7.7200 C   0  0  0  0  0  0  0  0  0  0  0  0
  -10.7490    4.8610    6.3730 C   0  0  0  0  0  0  0  0  0  0  0  0
  -11.0350    6.2020    6.1170 C   0  0  0  0  0  0  0  0  0  0  0  0
  -11.7370    6.5580    4.9650 C   0  0  0  0  0  0  0  0  0  0  0  0
  -12.1550    5.5730    4.0710 C   0  0  0  0  0  0  0  0  0  0  0  0
  -11.8700    4.2310    4.3270 C   0  0  0  0  0  0  0  0  0  0  0  0
  -11.1660    3.8760    5.4790 C   0  0  0  0  0  0  0  0  0  0  0  0
  -12.0160    7.8660    4.7150 O   0  0  0  0  0  0  0  0  0  0  0  0
   -6.8990    7.6510    9.7710 O   0  0  0  0  0  0  0  0  0  0  0  0
   -6.8432    3.0765    5.3964 N   0  0  0  0  0  0  0  0  0  0  0  0
   -7.3546    2.4387    4.3250 C   0  0  0  0  0  0  0  0  0  0  0  0
   -6.7443    1.3916    3.6373 C   0  0  0  0  0  0  0  0  0  0  0  0
   -7.4127    0.8661    2.5205 C   0  0  0  0  0  0  0  0  0  0  0  0
   -8.6539    1.3962    2.1212 C   0  0  0  0  0  0  0  0  0  0  0  0
   -9.2205    2.4524    2.8491 C   0  0  0  0  0  0  0  0  0  0  0  0
   -8.5442    2.9261    3.9300 N   0  0  0  0  0  0  0  0  0  0  0  0
   -8.8396    3.9240    4.7827 C   0  0  0  0  0  0  0  0  0  0  0  0
   -9.9997    4.8808    4.6200 C   0  0  0  0  0  0  0  0  0  0  0  0
   -9.7556    5.8631    3.5384 N   0  0  0  0  0  0  0  0  0  0  0  0
   -8.6969    6.8207    3.9105 C   0  0  0  0  0  0  0  0  0  0  0  0
  -10.9987    6.5922    3.2331 C   0  0  0  0  0  0  0  0  0  0  0  0
  1  3  4  0
  1 14  4  0
  1  2  1  0
  3  4  4  0
  4  5  4  0
  5  6  4  0
  5 22  1  0
  6  7  1  0
  6 14  4  0
  7  8  1  0
  8  9  4  0
  8 12  4  0
  9 10  4  0
 10 11  4  0
 11 12  4  0
 12 13  1  0
 13 14  1  0
 13 15  1  6
 15 16  4  0
 15 20  4  0
 16 17  4  0
 17 18  4  0
 17 21  1  0
 18 19  4  0
 19 20  4  0
 23 24  4  0
 24 25  4  0
 25 26  4  0
 26 27  4  0
 27 28  4  0
 28 29  4  0
 29 30  4  0
 30 31  1  0
 31 32  1  0
 32 33  1  0
 32 34  1  0
 29 24  4  0
  2 23  4  0
  2 30  4  0
M  CHG  1  32   1
M  END
$$$$

     RDKit          3D

 45 50  0  0  0  0  0  0  0  0999 V2000
   -7.6410    4.9930    6.8080 C   0  0  0  0  0  0  0  0  0  1  0  0
   -7.7310    4.0530    5.7140 C   0  0  0  0  0  0  0  0  0  2  0  0
   -6.4520    5.6300    6.8680 N   0  0  0  0  0  0  0  0  0  0  0  0
   -6.2260    6.5240    7.8670 N   0  0  0  0  0  0  0  0  0  0  0  0
   -7.1930    6.7500    8.7820 C   0  0  0  0  0  0  0  0  0  0  0  0
   -8.4240    6.1170    8.7580 C   0  0  0  0  0  0  0  0  0  0  0  0
   -9.3950    6.3570    9.7450 N   0  0  0  0  0  0  0  0  0  0  0  0
  -10.5620    5.6840    9.7600 C   0  0  0  0  0  0  0  0  0  0  0  0
  -11.5770    5.6820   10.5960 N   0  0  0  0  0  0  0  0  0  0  0  0
  -12.4690    4.7490   10.1080 N   0  0  0  0  0  0  0  0  0  0  0  0
  -12.0160    4.1880    8.9920 N   0  0  0  0  0  0  0  0  0  0  0  0
  -10.8400    4.7900    8.7610 N   0  0  0  0  0  0  0  0  0  0  0  0
   -9.9950    4.4790    7.6090 C   0  0  0  0  0  0  0  0  0  0  0  0
   -8.6630    5.2070    7.7200 C   0  0  0  0  0  0  0  0  0  0  0  0
  -10.7490    4.8610    6.3730 C   0  0  0  0  0  0  0  0  0  0  0  0
  -11.0350    6.2020    6.1170 C   0  0  0  0  0  0  0  0  0  0  0  0
  -11.7370    6.5580    4.9650 C   0  0  0  0  0  0  0  0  0  0  0  0
  -12.1550    5.5730    4.0710 C   0  0  0  0  0  0  0  0  0  0  0  0
  -11.8700    4.2310    4.3270 C   0  0  0  0  0  0  0  0  0  0  0  0
  -11.1660    3.8760    5.4790 C   0  0  0  0  0  0  0  0  0  0  0  0
  -12.0160    7.8660    4.7150 O   0  0  0  0  0  0  0  0  0  0  0  0
   -6.8990    7.6510    9.7710 O   0  0  0  0  0  0  0  0  0  0  0  0
   -6.8715    3.0526    5.4193 N   0  0  0  0  0  0  0  0  0  0  0  0
   -7.2910    2.4071    4.3415 N   0  0  0  0  0  0  0  0  0  0  0  0
   -8.4474    2.9834    3.9666 C   0  0  0  0  0  0  0  0  0  0  0  0
   -9.3542    2.5046    2.4920 S   0  0  0  0  0  0  0  0  0  0  0  0
  -10.5066    1.3862    3.3704 C   0  0  0  0  0  0  0  0  0  0  0  0
   -9.8361    0.0458    3.6812 C   0  0  0  0  0  0  0  0  0  0  0  0
  -11.7391    1.1868    2.5309 C   0  0  0  0  0  0  0  0  0  0  0  0
  -12.8655    1.4727    3.0203 O   0  0  0  0  0  0  0  0  0  0  0  0
  -11.6407    0.6524    1.1992 N   0  0  0  0  0  0  0  0  0  0  0  0
  -12.7413    0.6061    0.2755 C   0  0  0  0  0  0  0  0  0  0  0  0
  -13.6581    1.6694    0.1830 C   0  0  0  0  0  0  0  0  0  0  0  0
  -14.7042    1.6209   -0.7444 C   0  0  0  0  0  0  0  0  0  0  0  0
  -14.8401    0.5166   -1.5893 C   0  0  0  0  0  0  0  0  0  0  0  0
  -15.8524    0.4715   -2.4915 F   0  0  0  0  0  0  0  0  0  0  0  0
  -13.9244   -0.5361   -1.5155 C   0  0  0  0  0  0  0  0  0  0  0  0
  -12.8728   -0.4900   -0.5946 C   0  0  0  0  0  0  0  0  0  0  0  0
  -11.9938   -1.5223   -0.5356 F   0  0  0  0  0  0  0  0  0  0  0  0
   -8.7957    3.9895    4.7942 N   0  0  0  0  0  0  0  0  0  0  0  0
   -9.8594    4.9781    4.5902 C   0  0  0  0  0  0  0  0  0  0  0  0
   -9.3211    6.1781    3.8078 C   0  0  0  0  0  0  0  0  0  0  0  0
  -10.3959    7.1934    3.5732 C   0  0  0  0  0  0  0  0  0  0  0  0
  -10.9308    7.7881    4.5465 O   0  0  0  0  0  0  0  0  0  0  0  0
  -10.7931    7.4990    2.2778 O   0  0  0  0  0  0  0  0  0  0  0  0
  1  3  4  0
  1 14  4  0
  1  2  1  0
  3  4  4  0
  4  5  4  0
  5  6  4  0
  5 22  1  0
  6  7  1  0
  6 14  4  0
  7  8  1  0
  8  9  4  0
  8 12  4  0
  9 10  4  0
 10 11  4  0
 11 12  4  0
 12 13  1  0
 13 14  1  0
 13 15  1  6
 15 16  4  0
 15 20  4  0
 16 17  4  0
 17 18  4  0
 17 21  1  0
 18 19  4  0
 19 20  4  0
 23 24  4  0
 24 25  4  0
 25 26  1  0
 26 27  1  0
 27 28  1  0
 27 29  1  0
 29 30  2  0
 29 31  1  0
 31 32  1  0
 32 33  4  0
 33 34  4  0
 34 35  4  0
 35 36  1  0
 35 37  4  0
 37 38  4  0
 38 39  1  0
 25 40  4  0
 40 41  1  0
 41 42  1  0
 42 43  1  0
 43 44  2  0
 43 45  1  0
 38 32  4  0
  2 23  4  0
  2 40  4  0
M  CHG  1  45  -1
M  END
$$$$

     RDKit          3D

 45 50  0  0  0  0  0  0  0  0999 V2000
   -7.6410    4.9930    6.8080 C   0  0  0  0  0  0  0  0  0  1  0  0
   -7.7310    4.0530    5.7140 C   0  0  0  0  0  0  0  0  0  2  0  0
   -6.4520    5.6300    6.8680 N   0  0  0  0  0  0  0  0  0  0  0  0
   -6.2260    6.5240    7.8670 N   0  0  0  0  0  0  0  0  0  0  0  0
   -7.1930    6.7500    8.7820 C   0  0  0  0  0  0  0  0  0  0  0  0
   -8.4240    6.1170    8.7580 C   0  0  0  0  0  0  0  0  0  0  0  0
   -9.3950    6.3570    9.7450 N   0  0  0  0  0  0  0  0  0  0  0  0
  -10.5620    5.6840    9.7600 C   0  0  0  0  0  0  0  0  0  0  0  0
  -11.5770    5.6820   10.5960 N   0  0  0  0  0  0  0  0  0  0  0  0
  -12.4690    4.7490   10.1080 N   0  0  0  0  0  0  0  0  0  0  0  0
  -12.0160    4.1880    8.9920 N   0  0  0  0  0  0  0  0  0  0  0  0
  -10.8400    4.7900    8.7610 N   0  0  0  0  0  0  0  0  0  0  0  0
   -9.9950    4.4790    7.6090 C   0  0  0  0  0  0  0  0  0  0  0  0
   -8.6630    5.2070    7.7200 C   0  0  0  0  0  0  0  0  0  0  0  0
  -10.7490    4.8610    6.3730 C   0  0  0  0  0  0  0  0  0  0  0  0
  -11.0350    6.2020    6.1170 C   0  0  0  0  0  0  0  0  0  0  0  0
  -11.7370    6.5580    4.9650 C   0  0  0  0  0  0  0  0  0  0  0  0
  -12.1550    5.5730    4.0710 C   0  0  0  0  0  0  0  0  0  0  0  0
  -11.8700    4.2310    4.3270 C   0  0  0  0  0  0  0  0  0  0  0  0
  -11.1660    3.8760    5.4790 C   0  0  0  0  0  0  0  0  0  0  0  0
  -12.0160    7.8660    4.7150 O   0  0  0  0  0  0  0  0  0  0  0  0
   -6.8990    7.6510    9.7710 O   0  0  0  0  0  0  0  0  0  0  0  0
   -6.8572    3.0724    5.4017 N   0  0  0  0  0  0  0  0  0  0  0  0
   -7.2942    2.4034    4.3461 N   0  0  0  0  0  0  0  0  0  0  0  0
   -8.4794    2.9404    4.0031 C   0  0  0  0  0  0  0  0  0  0  0  0
   -9.4369    2.3930    2.5794 S   0  0  0  0  0  0  0  0  0  0  0  0
  -10.3385    1.0080    3.3995 C   0  0  0  0  0  0  0  0  0  0  0  0
  -11.0753    1.4694    4.6623 C   0  0  0  0  0  0  0  0  0  0  0  0
   -9.4521   -0.1809    3.6853 C   0  0  0  0  0  0  0  0  0  0  0  0
   -8.2280   -0.1516    3.3832 O   0  0  0  0  0  0  0  0  0  0  0  0
  -10.0250   -1.3783    4.2342 N   0  0  0  0  0  0  0  0  0  0  0  0
   -9.2502   -2.4371    4.8236 C   0  0  0  0  0  0  0  0  0  0  0  0
   -8.0744   -2.1627    5.5475 C   0  0  0  0  0  0  0  0  0  0  0  0
   -7.3466   -3.2029    6.1334 C   0  0  0  0  0  0  0  0  0  0  0  0
   -7.7897   -4.5224    6.0138 C   0  0  0  0  0  0  0  0  0  0  0  0
   -7.0831   -5.5294    6.5839 F   0  0  0  0  0  0  0  0  0  0  0  0
   -8.9665   -4.8028    5.3144 C   0  0  0  0  0  0  0  0  0  0  0  0
   -9.6994   -3.7660    4.7270 C   0  0  0  0  0  0  0  0  0  0  0  0
  -10.8379   -4.0584    4.0492 F   0  0  0  0  0  0  0  0  0  0  0  0
   -8.8191    3.9602    4.8200 N   0  0  0  0  0  0  0  0  0  0  0  0
   -9.9116    4.9264    4.6394 C   0  0  0  0  0  0  0  0  0  0  0  0
   -9.3901    6.2630    4.0987 C   0  0  0  0  0  0  0  0  0  0  0  0
   -8.7756    6.1066    2.7419 C   0  0  0  0  0  0  0  0  0  0  0  0
   -7.5484    6.3307    2.5721 O   0  0  0  0  0  0  0  0  0  0  0  0
   -9.5603    5.7229    1.6616 O   0  0  0  0  0  0  0  0  0  0  0  0
  1  3  4  0
  1 14  4  0
  1  2  1  0
  3  4  4  0
  4  5  4  0
  5  6  4  0
  5 22  1  0
  6  7  1  0
  6 14  4  0
  7  8  1  0
  8  9  4  0
  8 12  4  0
  9 10  4  0
 10 11  4  0
 11 12  4  0
 12 13  1  0
 13 14  1  0
 13 15  1  6
 15 16  4  0
 15 20  4  0
 16 17  4  0
 17 18  4  0
 17 21  1  0
 18 19  4  0
 19 20  4  0
 23 24  4  0
 24 25  4  0
 25 26  1  0
 26 27  1  0
 27 28  1  0
 27 29  1  0
 29 30  2  0
 29 31  1  0
 31 32  1  0
 32 33  4  0
 33 34  4  0
 34 35  4  0
 35 36  1  0
 35 37  4  0
 37 38  4  0
 38 39  1  0
 25 40  4  0
 40 41  1  0
 41 42  1  0
 42 43  1  0
 43 44  2  0
 43 45  1  0
 38 32  4  0
  2 23  4  0
  2 40  4  0
M  CHG  1  45  -1
M  END
$$$$

     RDKit          3D

 45 50  0  0  0  0  0  0  0  0999 V2000
   -7.6410    4.9930    6.8080 C   0  0  0  0  0  0  0  0  0  1  0  0
   -7.7310    4.0530    5.7140 C   0  0  0  0  0  0  0  0  0  2  0  0
   -6.4520    5.6300    6.8680 N   0  0  0  0  0  0  0  0  0  0  0  0
   -6.2260    6.5240    7.8670 N   0  0  0  0  0  0  0  0  0  0  0  0
   -7.1930    6.7500    8.7820 C   0  0  0  0  0  0  0  0  0  0  0  0
   -8.4240    6.1170    8.7580 C   0  0  0  0  0  0  0  0  0  0  0  0
   -9.3950    6.3570    9.7450 N   0  0  0  0  0  0  0  0  0  0  0  0
  -10.5620    5.6840    9.7600 C   0  0  0  0  0  0  0  0  0  0  0  0
  -11.5770    5.6820   10.5960 N   0  0  0  0  0  0  0  0  0  0  0  0
  -12.4690    4.7490   10.1080 N   0  0  0  0  0  0  0  0  0  0  0  0
  -12.0160    4.1880    8.9920 N   0  0  0  0  0  0  0  0  0  0  0  0
  -10.8400    4.7900    8.7610 N   0  0  0  0  0  0  0  0  0  0  0  0
   -9.9950    4.4790    7.6090 C   0  0  0  0  0  0  0  0  0  0  0  0
   -8.6630    5.2070    7.7200 C   0  0  0  0  0  0  0  0  0  0  0  0
  -10.7490    4.8610    6.3730 C   0  0  0  0  0  0  0  0  0  0  0  0
  -11.0350    6.2020    6.1170 C   0  0  0  0  0  0  0  0  0  0  0  0
  -11.7370    6.5580    4.9650 C   0  0  0  0  0  0  0  0  0  0  0  0
  -12.1550    5.5730    4.0710 C   0  0  0  0  0  0  0  0  0  0  0  0
  -11.8700    4.2310    4.3270 C   0  0  0  0  0  0  0  0  0  0  0  0
  -11.1660    3.8760    5.4790 C   0  0  0  0  0  0  0  0  0  0  0  0
  -12.0160    7.8660    4.7150 O   0  0  0  0  0  0  0  0  0  0  0  0
   -6.8990    7.6510    9.7710 O   0  0  0  0  0  0  0  0  0  0  0  0
   -6.8683    3.0570    5.4149 N   0  0  0  0  0  0  0  0  0  0  0  0
   -7.2972    2.3993    4.3483 N   0  0  0  0  0  0  0  0  0  0  0  0
   -8.4628    2.9640    3.9840 C   0  0  0  0  0  0  0  0  0  0  0  0
   -9.3968    2.4513    2.5378 S   0  0  0  0  0  0  0  0  0  0  0  0
  -10.4721    1.2938    3.4699 C   0  0  0  0  0  0  0  0  0  0  0  0
  -11.6925    0.9467    2.6214 C   0  0  0  0  0  0  0  0  0  0  0  0
   -9.7432    0.0328    3.8619 C   0  0  0  0  0  0  0  0  0  0  0  0
   -8.6524   -0.2700    3.3047 O   0  0  0  0  0  0  0  0  0  0  0  0
  -10.2857   -0.8047    4.8954 N   0  0  0  0  0  0  0  0  0  0  0  0
   -9.7625   -2.1006    5.2336 C   0  0  0  0  0  0  0  0  0  0  0  0
   -9.3064   -2.9840    4.2376 C   0  0  0  0  0  0  0  0  0  0  0  0
   -8.8188   -4.2478    4.5840 C   0  0  0  0  0  0  0  0  0  0  0  0
   -8.7931   -4.6461    5.9228 C   0  0  0  0  0  0  0  0  0  0  0  0
   -8.3196   -5.8720    6.2566 F   0  0  0  0  0  0  0  0  0  0  0  0
   -9.2639   -3.7841    6.9168 C   0  0  0  0  0  0  0  0  0  0  0  0
   -9.7542   -2.5191    6.5755 C   0  0  0  0  0  0  0  0  0  0  0  0
  -10.2030   -1.6937    7.5544 F   0  0  0  0  0  0  0  0  0  0  0  0
   -8.8085    3.9738    4.8080 N   0  0  0  0  0  0  0  0  0  0  0  0
   -9.8797    4.9546    4.6059 C   0  0  0  0  0  0  0  0  0  0  0  0
   -9.3612    6.1415    3.7851 C   0  0  0  0  0  0  0  0  0  0  0  0
  -10.4054    7.1947    3.5468 C   0  0  0  0  0  0  0  0  0  0  0  0
  -11.5727    7.0794    4.0087 O   0  0  0  0  0  0  0  0  0  0  0  0
  -10.0738    8.3239    2.8105 O   0  0  0  0  0  0  0  0  0  0  0  0
  1  3  4  0
  1 14  4  0
  1  2  1  0
  3  4  4  0
  4  5  4  0
  5  6  4  0
  5 22  1  0
  6  7  1  0
  6 14  4  0
  7  8  1  0
  8  9  4  0
  8 12  4  0
  9 10  4  0
 10 11  4  0
 11 12  4  0
 12 13  1  0
 13 14  1  0
 13 15  1  6
 15 16  4  0
 15 20  4  0
 16 17  4  0
 17 18  4  0
 17 21  1  0
 18 19  4  0
 19 20  4  0
 23 24  4  0
 24 25  4  0
 25 26  1  0
 26 27  1  0
 27 28  1  0
 27 29  1  0
 29 30  2  0
 29 31  1  0
 31 32  1  0
 32 33  4  0
 33 34  4  0
 34 35  4  0
 35 36  1  0
 35 37  4  0
 37 38  4  0
 38 39  1  0
 25 40  4  0
 40 41  1  0
 41 42  1  0
 42 43  1  0
 43 44  2  0
 43 45  1  0
 38 32  4  0
  2 23  4  0
  2 40  4  0
M  CHG  1  45  -1
M  END
$$$$

     RDKit          3D

 42 47  0  0  0  0  0  0  0  0999 V2000
   -7.6410    4.9930    6.8080 C   0  0  0  0  0  0  0  0  0  1  0  0
   -7.7310    4.0530    5.7140 C   0  0  0  0  0  0  0  0  0  2  0  0
   -6.4520    5.6300    6.8680 N   0  0  0  0  0  0  0  0  0  0  0  0
   -6.2260    6.5240    7.8670 N   0  0  0  0  0  0  0  0  0  0  0  0
   -7.1930    6.7500    8.7820 C   0  0  0  0  0  0  0  0  0  0  0  0
   -8.4240    6.1170    8.7580 C   0  0  0  0  0  0  0  0  0  0  0  0
   -9.3950    6.3570    9.7450 N   0  0  0  0  0  0  0  0  0  0  0  0
  -10.5620    5.6840    9.7600 C   0  0  0  0  0  0  0  0  0  0  0  0
  -11.5770    5.6820   10.5960 N   0  0  0  0  0  0  0  0  0  0  0  0
  -12.4690    4.7490   10.1080 N   0  0  0  0  0  0  0  0  0  0  0  0
  -12.0160    4.1880    8.9920 N   0  0  0  0  0  0  0  0  0  0  0  0
  -10.8400    4.7900    8.7610 N   0  0  0  0  0  0  0  0  0  0  0  0
   -9.9950    4.4790    7.6090 C   0  0  0  0  0  0  0  0  0  0  0  0
   -8.6630    5.2070    7.7200 C   0  0  0  0  0  0  0  0  0  0  0  0
  -10.7490    4.8610    6.3730 C   0  0  0  0  0  0  0  0  0  0  0  0
  -11.0350    6.2020    6.1170 C   0  0  0  0  0  0  0  0  0  0  0  0
  -11.7370    6.5580    4.9650 C   0  0  0  0  0  0  0  0  0  0  0  0
  -12.1550    5.5730    4.0710 C   0  0  0  0  0  0  0  0  0  0  0  0
  -11.8700    4.2310    4.3270 C   0  0  0  0  0  0  0  0  0  0  0  0
  -11.1660    3.8760    5.4790 C   0  0  0  0  0  0  0  0  0  0  0  0
  -12.0160    7.8660    4.7150 O   0  0  0  0  0  0  0  0  0  0  0  0
   -6.8990    7.6510    9.7710 O   0  0  0  0  0  0  0  0  0  0  0  0
   -6.8508    3.0820    5.3902 N   0  0  0  0  0  0  0  0  0  0  0  0
   -7.2688    2.4436    4.3079 N   0  0  0  0  0  0  0  0  0  0  0  0
   -8.4433    2.9969    3.9556 C   0  0  0  0  0  0  0  0  0  0  0  0
   -9.3609    2.5046    2.4813 S   0  0  0  0  0  0  0  0  0  0  0  0
   -8.8040    3.9837    4.8018 N   0  0  0  0  0  0  0  0  0  0  0  0
   -9.9079    4.9381    4.6493 C   0  0  0  0  0  0  0  0  0  0  0  0
   -9.3745    6.2957    4.3033 C   0  0  0  0  0  0  0  0  0  0  0  0
   -9.5968    7.2687    5.0745 O   0  0  0  0  0  0  0  0  0  0  0  0
   -8.6023    6.4796    3.1109 N   0  0  0  0  0  0  0  0  0  0  0  0
   -7.9477    7.7532    2.8146 C   0  0  0  0  0  0  0  0  0  0  0  0
   -7.1868    7.6708    1.5179 C   0  0  0  0  0  0  0  0  0  0  0  0
   -5.7831    7.6712    1.5110 C   0  0  0  0  0  0  0  0  0  0  0  0
   -5.0858    7.5895    0.3036 C   0  0  0  0  0  0  0  0  0  0  0  0
   -5.7815    7.5038   -0.9047 C   0  0  0  0  0  0  0  0  0  0  0  0
   -7.1851    7.4961   -0.9141 C   0  0  0  0  0  0  0  0  0  0  0  0
   -7.9339    7.4212   -2.2245 C   0  0  0  0  0  0  0  0  0  0  0  0
   -7.9093    8.7122   -2.9508 N   0  0  0  0  0  0  0  0  0  0  0  0
   -8.7021    9.7395   -2.2496 C   0  0  0  0  0  0  0  0  0  0  0  0
   -8.4315    8.5300   -4.3162 C   0  0  0  0  0  0  0  0  0  0  0  0
   -7.8827    7.5820    0.3017 C   0  0  0  0  0  0  0  0  0  0  0  0
  1  3  4  0
  1 14  4  0
  1  2  1  0
  3  4  4  0
  4  5  4  0
  5  6  4  0
  5 22  1  0
  6  7  1  0
  6 14  4  0
  7  8  1  0
  8  9  4  0
  8 12  4  0
  9 10  4  0
 10 11  4  0
 11 12  4  0
 12 13  1  0
 13 14  1  0
 13 15  1  6
 15 16  4  0
 15 20  4  0
 16 17  4  0
 17 18  4  0
 17 21  1  0
 18 19  4  0
 19 20  4  0
 23 24  4  0
 24 25  4  0
 25 26  1  0
 25 27  4  0
 27 28  1  0
 28 29  1  0
 29 30  2  0
 29 31  1  0
 31 32  1  0
 32 33  1  0
 33 34  4  0
 34 35  4  0
 35 36  4  0
 36 37  4  0
 37 38  1  0
 38 39  1  0
 39 40  1  0
 39 41  1  0
 37 42  4  0
 42 33  4  0
  2 23  4  0
  2 27  4  0
M  CHG  2  26  -1  39   1
M  END
$$$$

     RDKit          3D

 37 42  0  0  0  0  0  0  0  0999 V2000
   -7.6410    4.9930    6.8080 C   0  0  0  0  0  0  0  0  0  1  0  0
   -7.7310    4.0530    5.7140 C   0  0  0  0  0  0  0  0  0  2  0  0
   -6.4520    5.6300    6.8680 N   0  0  0  0  0  0  0  0  0  0  0  0
   -6.2260    6.5240    7.8670 N   0  0  0  0  0  0  0  0  0  0  0  0
   -7.1930    6.7500    8.7820 C   0  0  0  0  0  0  0  0  0  0  0  0
   -8.4240    6.1170    8.7580 C   0  0  0  0  0  0  0  0  0  0  0  0
   -9.3950    6.3570    9.7450 N   0  0  0  0  0  0  0  0  0  0  0  0
  -10.5620    5.6840    9.7600 C   0  0  0  0  0  0  0  0  0  0  0  0
  -11.5770    5.6820   10.5960 N   0  0  0  0  0  0  0  0  0  0  0  0
  -12.4690    4.7490   10.1080 N   0  0  0  0  0  0  0  0  0  0  0  0
  -12.0160    4.1880    8.9920 N   0  0  0  0  0  0  0  0  0  0  0  0
  -10.8400    4.7900    8.7610 N   0  0  0  0  0  0  0  0  0  0  0  0
   -9.9950    4.4790    7.6090 C   0  0  0  0  0  0  0  0  0  0  0  0
   -8.6630    5.2070    7.7200 C   0  0  0  0  0  0  0  0  0  0  0  0
  -10.7490    4.8610    6.3730 C   0  0  0  0  0  0  0  0  0  0  0  0
  -11.0350    6.2020    6.1170 C   0  0  0  0  0  0  0  0  0  0  0  0
  -11.7370    6.5580    4.9650 C   0  0  0  0  0  0  0  0  0  0  0  0
  -12.1550    5.5730    4.0710 C   0  0  0  0  0  0  0  0  0  0  0  0
  -11.8700    4.2310    4.3270 C   0  0  0  0  0  0  0  0  0  0  0  0
  -11.1660    3.8760    5.4790 C   0  0  0  0  0  0  0  0  0  0  0  0
  -12.0160    7.8660    4.7150 O   0  0  0  0  0  0  0  0  0  0  0  0
   -6.8990    7.6510    9.7710 O   0  0  0  0  0  0  0  0  0  0  0  0
   -6.9234    2.9646    5.4412 C   0  0  0  0  0  0  0  0  0  0  0  0
   -7.4631    2.3276    4.3436 C   0  0  0  0  0  0  0  0  0  0  0  0
   -8.5773    2.9730    3.9499 N   0  0  0  0  0  0  0  0  0  0  0  0
   -8.7704    4.0005    4.7640 N   0  0  0  0  0  0  0  0  0  0  0  0
   -9.8348    4.9535    4.5757 C   0  0  0  0  0  0  0  0  0  0  0  0
  -10.1978    5.6996    5.5220 O   0  0  0  0  0  0  0  0  0  0  0  0
  -10.5321    5.0407    3.3242 N   0  0  0  0  0  0  0  0  0  0  0  0
   -9.9018    4.8572    2.0440 C   0  0  0  0  0  0  0  0  0  0  0  0
   -8.5608    5.2365    1.8466 C   0  0  0  0  0  0  0  0  0  0  0  0
   -7.9559    5.0774    0.5975 C   0  0  0  0  0  0  0  0  0  0  0  0
   -8.6839    4.5497   -0.4715 C   0  0  0  0  0  0  0  0  0  0  0  0
   -7.9222    4.3508   -2.0390 Cl  0  0  0  0  0  0  0  0  0  0  0  0
  -10.0211    4.1840   -0.2917 C   0  0  0  0  0  0  0  0  0  0  0  0
  -10.6349    4.3398    0.9571 C   0  0  0  0  0  0  0  0  0  0  0  0
  -12.3123    3.8428    1.1402 Cl  0  0  0  0  0  0  0  0  0  0  0  0
  1  3  4  0
  1 14  4  0
  1  2  1  0
  3  4  4  0
  4  5  4  0
  5  6  4  0
  5 22  1  0
  6  7  1  0
  6 14  4  0
  7  8  1  0
  8  9  4  0
  8 12  4  0
  9 10  4  0
 10 11  4  0
 11 12  4  0
 12 13  1  0
 13 14  1  0
 13 15  1  6
 15 16  4  0
 15 20  4  0
 16 17  4  0
 17 18  4  0
 17 21  1  0
 18 19  4  0
 19 20  4  0
 23 24  4  0
 24 25  4  0
 25 26  4  0
 26 27  1  0
 27 28  2  0
 27 29  1  0
 29 30  1  0
 30 31  4  0
 31 32  4  0
 32 33  4  0
 33 34  1  0
 33 35  4  0
 35 36  4  0
 36 37  1  0
 36 30  4  0
  2 23  4  0
  2 26  4  0
M  END
$$$$

     RDKit          3D

 39 45  0  0  0  0  0  0  0  0999 V2000
   -7.6410    4.9930    6.8080 C   0  0  0  0  0  0  0  0  0  1  0  0
   -7.7310    4.0530    5.7140 C   0  0  0  0  0  0  0  0  0  2  0  0
   -6.4520    5.6300    6.8680 N   0  0  0  0  0  0  0  0  0  0  0  0
   -6.2260    6.5240    7.8670 N   0  0  0  0  0  0  0  0  0  0  0  0
   -7.1930    6.7500    8.7820 C   0  0  0  0  0  0  0  0  0  0  0  0
   -8.4240    6.1170    8.7580 C   0  0  0  0  0  0  0  0  0  0  0  0
   -9.3950    6.3570    9.7450 N   0  0  0  0  0  0  0  0  0  0  0  0
  -10.5620    5.6840    9.7600 C   0  0  0  0  0  0  0  0  0  0  0  0
  -11.5770    5.6820   10.5960 N   0  0  0  0  0  0  0  0  0  0  0  0
  -12.4690    4.7490   10.1080 N   0  0  0  0  0  0  0  0  0  0  0  0
  -12.0160    4.1880    8.9920 N   0  0  0  0  0  0  0  0  0  0  0  0
  -10.8400    4.7900    8.7610 N   0  0  0  0  0  0  0  0  0  0  0  0
   -9.9950    4.4790    7.6090 C   0  0  0  0  0  0  0  0  0  0  0  0
   -8.6630    5.2070    7.7200 C   0  0  0  0  0  0  0  0  0  0  0  0
  -10.7490    4.8610    6.3730 C   0  0  0  0  0  0  0  0  0  0  0  0
  -11.0350    6.2020    6.1170 C   0  0  0  0  0  0  0  0  0  0  0  0
  -11.7370    6.5580    4.9650 C   0  0  0  0  0  0  0  0  0  0  0  0
  -12.1550    5.5730    4.0710 C   0  0  0  0  0  0  0  0  0  0  0  0
  -11.8700    4.2310    4.3270 C   0  0  0  0  0  0  0  0  0  0  0  0
  -11.1660    3.8760    5.4790 C   0  0  0  0  0  0  0  0  0  0  0  0
  -12.0160    7.8660    4.7150 O   0  0  0  0  0  0  0  0  0  0  0  0
   -6.8990    7.6510    9.7710 O   0  0  0  0  0  0  0  0  0  0  0  0
   -7.0194    2.8343    5.5825 C   0  0  0  0  0  0  0  0  0  0  0  0
   -5.9150    2.4146    6.4994 C   0  0  0  0  0  0  0  0  0  0  0  0
   -7.5014    1.9580    4.2184 S   0  0  0  0  0  0  0  0  0  0  0  0
   -8.6927    3.0496    3.7693 C   0  0  0  0  0  0  0  0  0  0  0  0
   -9.5074    2.9616    2.6900 N   0  0  0  0  0  0  0  0  0  0  0  0
  -10.4125    3.9618    2.4560 C   0  0  0  0  0  0  0  0  0  1  0  0
  -11.3312    3.9103    1.2915 C   0  0  0  0  0  0  0  0  0  2  0  0
  -11.8008    5.1044    0.7132 C   0  0  0  0  0  0  0  0  0  0  0  0
  -12.6710    5.0694   -0.3805 C   0  0  0  0  0  0  0  0  0  0  0  0
  -13.0895    3.8437   -0.9052 C   0  0  0  0  0  0  0  0  0  0  0  0
  -14.1830    3.8022   -2.2761 Cl  0  0  0  0  0  0  0  0  0  0  0  0
  -12.6401    2.6511   -0.3318 C   0  0  0  0  0  0  0  0  0  0  0  0
  -11.7688    2.6813    0.7615 C   0  0  0  0  0  0  0  0  0  0  0  0
  -10.4583    5.0401    3.2977 N   0  0  0  0  0  0  0  0  0  0  0  0
   -9.6425    5.1466    4.3830 C   0  0  0  0  0  0  0  0  0  0  0  0
   -9.7102    6.1693    5.1138 O   0  0  0  0  0  0  0  0  0  0  0  0
   -8.7342    4.1145    4.6487 C   0  0  0  0  0  0  0  0  0  0  0  0
  1  3  4  0
  1 14  4  0
  1  2  1  0
  3  4  4  0
  4  5  4  0
  5  6  4  0
  5 22  1  0
  6  7  1  0
  6 14  4  0
  7  8  1  0
  8  9  4  0
  8 12  4  0
  9 10  4  0
 10 11  4  0
 11 12  4  0
 12 13  1  0
 13 14  1  0
 13 15  1  6
 15 16  4  0
 15 20  4  0
 16 17  4  0
 17 18  4  0
 17 21  1  0
 18 19  4  0
 19 20  4  0
 23 24  1  0
 23 25  4  0
 25 26  4  0
 26 27  4  0
 27 28  4  0
 28 29  1  0
 29 30  4  0
 30 31  4  0
 31 32  4  0
 32 33  1  0
 32 34  4  0
 34 35  4  0
 28 36  4  0
 36 37  4  0
 37 38  2  0
 37 39  4  0
 39 26  4  0
 35 29  4  0
  2 23  4  0
  2 39  4  0
M  END
$$$$

     RDKit          3D

 39 45  0  0  0  0  0  0  0  0999 V2000
   -7.6410    4.9930    6.8080 C   0  0  0  0  0  0  0  0  0  1  0  0
   -7.7310    4.0530    5.7140 C   0  0  0  0  0  0  0  0  0  2  0  0
   -6.4520    5.6300    6.8680 N   0  0  0  0  0  0  0  0  0  0  0  0
   -6.2260    6.5240    7.8670 N   0  0  0  0  0  0  0  0  0  0  0  0
   -7.1930    6.7500    8.7820 C   0  0  0  0  0  0  0  0  0  0  0  0
   -8.4240    6.1170    8.7580 C   0  0  0  0  0  0  0  0  0  0  0  0
   -9.3950    6.3570    9.7450 N   0  0  0  0  0  0  0  0  0  0  0  0
  -10.5620    5.6840    9.7600 C   0  0  0  0  0  0  0  0  0  0  0  0
  -11.5770    5.6820   10.5960 N   0  0  0  0  0  0  0  0  0  0  0  0
  -12.4690    4.7490   10.1080 N   0  0  0  0  0  0  0  0  0  0  0  0
  -12.0160    4.1880    8.9920 N   0  0  0  0  0  0  0  0  0  0  0  0
  -10.8400    4.7900    8.7610 N   0  0  0  0  0  0  0  0  0  0  0  0
   -9.9950    4.4790    7.6090 C   0  0  0  0  0  0  0  0  0  0  0  0
   -8.6630    5.2070    7.7200 C   0  0  0  0  0  0  0  0  0  0  0  0
  -10.7490    4.8610    6.3730 C   0  0  0  0  0  0  0  0  0  0  0  0
  -11.0350    6.2020    6.1170 C   0  0  0  0  0  0  0  0  0  0  0  0
  -11.7370    6.5580    4.9650 C   0  0  0  0  0  0  0  0  0  0  0  0
  -12.1550    5.5730    4.0710 C   0  0  0  0  0  0  0  0  0  0  0  0
  -11.8700    4.2310    4.3270 C   0  0  0  0  0  0  0  0  0  0  0  0
  -11.1660    3.8760    5.4790 C   0  0  0  0  0  0  0  0  0  0  0  0
  -12.0160    7.8660    4.7150 O   0  0  0  0  0  0  0  0  0  0  0  0
   -6.8990    7.6510    9.7710 O   0  0  0  0  0  0  0  0  0  0  0  0
   -8.7045    4.1753    4.6411 C   0  0  0  0  0  0  0  0  0  0  0  0
   -9.6645    5.3111    4.4830 C   0  0  0  0  0  0  0  0  0  0  0  0
   -8.6037    2.8660    3.5751 S   0  0  0  0  0  0  0  0  0  0  0  0
   -7.3861    2.0897    4.4277 C   0  0  0  0  0  0  0  0  0  0  0  0
   -6.8064    0.9052    4.1156 N   0  0  0  0  0  0  0  0  0  0  0  0
   -5.8398    0.3989    4.9426 C   0  0  0  0  0  0  0  0  0  1  0  0
   -5.1702   -0.8912    4.6426 C   0  0  0  0  0  0  0  0  0  2  0  0
   -5.0021   -1.3347    3.3168 C   0  0  0  0  0  0  0  0  0  0  0  0
   -4.3625   -2.5497    3.0517 C   0  0  0  0  0  0  0  0  0  0  0  0
   -3.8784   -3.3328    4.1032 C   0  0  0  0  0  0  0  0  0  0  0  0
   -3.0759   -4.8560    3.7670 Cl  0  0  0  0  0  0  0  0  0  0  0  0
   -4.0293   -2.8973    5.4224 C   0  0  0  0  0  0  0  0  0  0  0  0
   -4.6671   -1.6828    5.6920 C   0  0  0  0  0  0  0  0  0  0  0  0
   -5.4985    1.0823    6.0782 N   0  0  0  0  0  0  0  0  0  0  0  0
   -6.0757    2.2706    6.4093 C   0  0  0  0  0  0  0  0  0  0  0  0
   -5.7410    2.8485    7.4762 O   0  0  0  0  0  0  0  0  0  0  0  0
   -7.0434    2.8123    5.5546 C   0  0  0  0  0  0  0  0  0  0  0  0
  1  3  4  0
  1 14  4  0
  1  2  1  0
  3  4  4  0
  4  5  4  0
  5  6  4  0
  5 22  1  0
  6  7  1  0
  6 14  4  0
  7  8  1  0
  8  9  4  0
  8 12  4  0
  9 10  4  0
 10 11  4  0
 11 12  4  0
 12 13  1  0
 13 14  1  0
 13 15  1  6
 15 16  4  0
 15 20  4  0
 16 17  4  0
 17 18  4  0
 17 21  1  0
 18 19  4  0
 19 20  4  0
 23 24  1  0
 23 25  4  0
 25 26  4  0
 26 27  4  0
 27 28  4  0
 28 29  1  0
 29 30  4  0
 30 31  4  0
 31 32  4  0
 32 33  1  0
 32 34  4  0
 34 35  4  0
 28 36  4  0
 36 37  4  0
 37 38  2  0
 37 39  4  0
 39 26  4  0
 35 29  4  0
  2 23  4  0
  2 39  4  0
M  END
$$$$

     RDKit          3D

 39 45  0  0  0  0  0  0  0  0999 V2000
   -7.6410    4.9930    6.8080 C   0  0  0  0  0  0  0  0  0  1  0  0
   -7.7310    4.0530    5.7140 C   0  0  0  0  0  0  0  0  0  2  0  0
   -6.4520    5.6300    6.8680 N   0  0  0  0  0  0  0  0  0  0  0  0
   -6.2260    6.5240    7.8670 N   0  0  0  0  0  0  0  0  0  0  0  0
   -7.1930    6.7500    8.7820 C   0  0  0  0  0  0  0  0  0  0  0  0
   -8.4240    6.1170    8.7580 C   0  0  0  0  0  0  0  0  0  0  0  0
   -9.3950    6.3570    9.7450 N   0  0  0  0  0  0  0  0  0  0  0  0
  -10.5620    5.6840    9.7600 C   0  0  0  0  0  0  0  0  0  0  0  0
  -11.5770    5.6820   10.5960 N   0  0  0  0  0  0  0  0  0  0  0  0
  -12.4690    4.7490   10.1080 N   0  0  0  0  0  0  0  0  0  0  0  0
  -12.0160    4.1880    8.9920 N   0  0  0  0  0  0  0  0  0  0  0  0
  -10.8400    4.7900    8.7610 N   0  0  0  0  0  0  0  0  0  0  0  0
   -9.9950    4.4790    7.6090 C   0  0  0  0  0  0  0  0  0  0  0  0
   -8.6630    5.2070    7.7200 C   0  0  0  0  0  0  0  0  0  0  0  0
  -10.7490    4.8610    6.3730 C   0  0  0  0  0  0  0  0  0  0  0  0
  -11.0350    6.2020    6.1170 C   0  0  0  0  0  0  0  0  0  0  0  0
  -11.7370    6.5580    4.9650 C   0  0  0  0  0  0  0  0  0  0  0  0
  -12.1550    5.5730    4.0710 C   0  0  0  0  0  0  0  0  0  0  0  0
  -11.8700    4.2310    4.3270 C   0  0  0  0  0  0  0  0  0  0  0  0
  -11.1660    3.8760    5.4790 C   0  0  0  0  0  0  0  0  0  0  0  0
  -12.0160    7.8660    4.7150 O   0  0  0  0  0  0  0  0  0  0  0  0
   -6.8990    7.6510    9.7710 O   0  0  0  0  0  0  0  0  0  0  0  0
   -8.6951    4.1826    4.6343 C   0  0  0  0  0  0  0  0  0  0  0  0
   -9.6441    5.3265    4.4689 C   0  0  0  0  0  0  0  0  0  0  0  0
   -8.5918    2.8758    3.5653 S   0  0  0  0  0  0  0  0  0  0  0  0
   -7.3899    2.0878    4.4297 C   0  0  0  0  0  0  0  0  0  0  0  0
   -6.8076    0.9054    4.1147 N   0  0  0  0  0  0  0  0  0  0  0  0
   -5.8512    0.3915    4.9490 C   0  0  0  0  0  0  0  0  0  1  0  0
   -5.1805   -0.8978    4.6485 C   0  0  0  0  0  0  0  0  0  2  0  0
   -3.8707   -1.1317    5.1072 C   0  0  0  0  0  0  0  0  0  0  0  0
   -3.2292   -2.3439    4.8359 C   0  0  0  0  0  0  0  0  0  0  0  0
   -3.8889   -3.3401    4.1112 C   0  0  0  0  0  0  0  0  0  0  0  0
   -3.0828   -4.8611    3.7739 Cl  0  0  0  0  0  0  0  0  0  0  0  0
   -5.1943   -3.1248    3.6612 C   0  0  0  0  0  0  0  0  0  0  0  0
   -5.8396   -1.9135    3.9292 C   0  0  0  0  0  0  0  0  0  0  0  0
   -5.5008    1.0804    6.0784 N   0  0  0  0  0  0  0  0  0  0  0  0
   -6.0775    2.2688    6.4099 C   0  0  0  0  0  0  0  0  0  0  0  0
   -5.7371    2.8501    7.4734 O   0  0  0  0  0  0  0  0  0  0  0  0
   -7.0497    2.8081    5.5588 C   0  0  0  0  0  0  0  0  0  0  0  0
  1  3  4  0
  1 14  4  0
  1  2  1  0
  3  4  4  0
  4  5  4  0
  5  6  4  0
  5 22  1  0
  6  7  1  0
  6 14  4  0
  7  8  1  0
  8  9  4  0
  8 12  4  0
  9 10  4  0
 10 11  4  0
 11 12  4  0
 12 13  1  0
 13 14  1  0
 13 15  1  6
 15 16  4  0
 15 20  4  0
 16 17  4  0
 17 18  4  0
 17 21  1  0
 18 19  4  0
 19 20  4  0
 23 24  1  0
 23 25  4  0
 25 26  4  0
 26 27  4  0
 27 28  4  0
 28 29  1  0
 29 30  4  0
 30 31  4  0
 31 32  4  0
 32 33  1  0
 32 34  4  0
 34 35  4  0
 28 36  4  0
 36 37  4  0
 37 38  2  0
 37 39  4  0
 39 26  4  0
 35 29  4  0
  2 23  4  0
  2 39  4  0
M  END
$$$$

     RDKit          3D

 39 45  0  0  0  0  0  0  0  0999 V2000
   -7.6410    4.9930    6.8080 C   0  0  0  0  0  0  0  0  0  1  0  0
   -7.7310    4.0530    5.7140 C   0  0  0  0  0  0  0  0  0  2  0  0
   -6.4520    5.6300    6.8680 N   0  0  0  0  0  0  0  0  0  0  0  0
   -6.2260    6.5240    7.8670 N   0  0  0  0  0  0  0  0  0  0  0  0
   -7.1930    6.7500    8.7820 C   0  0  0  0  0  0  0  0  0  0  0  0
   -8.4240    6.1170    8.7580 C   0  0  0  0  0  0  0  0  0  0  0  0
   -9.3950    6.3570    9.7450 N   0  0  0  0  0  0  0  0  0  0  0  0
  -10.5620    5.6840    9.7600 C   0  0  0  0  0  0  0  0  0  0  0  0
  -11.5770    5.6820   10.5960 N   0  0  0  0  0  0  0  0  0  0  0  0
  -12.4690    4.7490   10.1080 N   0  0  0  0  0  0  0  0  0  0  0  0
  -12.0160    4.1880    8.9920 N   0  0  0  0  0  0  0  0  0  0  0  0
  -10.8400    4.7900    8.7610 N   0  0  0  0  0  0  0  0  0  0  0  0
   -9.9950    4.4790    7.6090 C   0  0  0  0  0  0  0  0  0  0  0  0
   -8.6630    5.2070    7.7200 C   0  0  0  0  0  0  0  0  0  0  0  0
  -10.7490    4.8610    6.3730 C   0  0  0  0  0  0  0  0  0  0  0  0
  -11.0350    6.2020    6.1170 C   0  0  0  0  0  0  0  0  0  0  0  0
  -11.7370    6.5580    4.9650 C   0  0  0  0  0  0  0  0  0  0  0  0
  -12.1550    5.5730    4.0710 C   0  0  0  0  0  0  0  0  0  0  0  0
  -11.8700    4.2310    4.3270 C   0  0  0  0  0  0  0  0  0  0  0  0
  -11.1660    3.8760    5.4790 C   0  0  0  0  0  0  0  0  0  0  0  0
  -12.0160    7.8660    4.7150 O   0  0  0  0  0  0  0  0  0  0  0  0
   -6.8990    7.6510    9.7710 O   0  0  0  0  0  0  0  0  0  0  0  0
   -7.0278    2.8284    5.5905 C   0  0  0  0  0  0  0  0  0  0  0  0
   -5.9331    2.4027    6.5162 C   0  0  0  0  0  0  0  0  0  0  0  0
   -7.5125    1.9490    4.2293 S   0  0  0  0  0  0  0  0  0  0  0  0
   -8.6894    3.0509    3.7677 C   0  0  0  0  0  0  0  0  0  0  0  0
   -9.5073    2.9597    2.6910 N   0  0  0  0  0  0  0  0  0  0  0  0
  -10.4033    3.9663    2.4488 C   0  0  0  0  0  0  0  0  0  1  0  0
  -11.3235    3.9139    1.2856 C   0  0  0  0  0  0  0  0  0  2  0  0
  -10.9639    3.2449    0.0997 C   0  0  0  0  0  0  0  0  0  0  0  0
  -11.8411    3.2116   -0.9888 C   0  0  0  0  0  0  0  0  0  0  0  0
  -13.0826    3.8485   -0.9105 C   0  0  0  0  0  0  0  0  0  0  0  0
  -14.1801    3.8055   -2.2782 Cl  0  0  0  0  0  0  0  0  0  0  0  0
  -13.4453    4.5252    0.2570 C   0  0  0  0  0  0  0  0  0  0  0  0
  -12.5712    4.5621    1.3475 C   0  0  0  0  0  0  0  0  0  0  0  0
  -10.4579    5.0390    3.2970 N   0  0  0  0  0  0  0  0  0  0  0  0
   -9.6420    5.1464    4.3821 C   0  0  0  0  0  0  0  0  0  0  0  0
   -9.7155    6.1659    5.1169 O   0  0  0  0  0  0  0  0  0  0  0  0
   -8.7287    4.1180    4.6445 C   0  0  0  0  0  0  0  0  0  0  0  0
  1  3  4  0
  1 14  4  0
  1  2  1  0
  3  4  4  0
  4  5  4  0
  5  6  4  0
  5 22  1  0
  6  7  1  0
  6 14  4  0
  7  8  1  0
  8  9  4  0
  8 12  4  0
  9 10  4  0
 10 11  4  0
 11 12  4  0
 12 13  1  0
 13 14  1  0
 13 15  1  6
 15 16  4  0
 15 20  4  0
 16 17  4  0
 17 18  4  0
 17 21  1  0
 18 19  4  0
 19 20  4  0
 23 24  1  0
 23 25  4  0
 25 26  4  0
 26 27  4  0
 27 28  4  0
 28 29  1  0
 29 30  4  0
 30 31  4  0
 31 32  4  0
 32 33  1  0
 32 34  4  0
 34 35  4  0
 28 36  4  0
 36 37  4  0
 37 38  2  0
 37 39  4  0
 39 26  4  0
 35 29  4  0
  2 23  4  0
  2 39  4  0
M  END
$$$$

     RDKit          3D

 34 40  0  0  0  0  0  0  0  0999 V2000
   -7.6410    4.9930    6.8080 C   0  0  0  0  0  0  0  0  0  1  0  0
   -7.7310    4.0530    5.7140 C   0  0  0  0  0  0  0  0  0  2  0  0
   -6.4520    5.6300    6.8680 N   0  0  0  0  0  0  0  0  0  0  0  0
   -6.2260    6.5240    7.8670 N   0  0  0  0  0  0  0  0  0  0  0  0
   -7.1930    6.7500    8.7820 C   0  0  0  0  0  0  0  0  0  0  0  0
   -8.4240    6.1170    8.7580 C   0  0  0  0  0  0  0  0  0  0  0  0
   -9.3950    6.3570    9.7450 N   0  0  0  0  0  0  0  0  0  0  0  0
  -10.5620    5.6840    9.7600 C   0  0  0  0  0  0  0  0  0  0  0  0
  -11.5770    5.6820   10.5960 N   0  0  0  0  0  0  0  0  0  0  0  0
  -12.4690    4.7490   10.1080 N   0  0  0  0  0  0  0  0  0  0  0  0
  -12.0160    4.1880    8.9920 N   0  0  0  0  0  0  0  0  0  0  0  0
  -10.8400    4.7900    8.7610 N   0  0  0  0  0  0  0  0  0  0  0  0
   -9.9950    4.4790    7.6090 C   0  0  0  0  0  0  0  0  0  0  0  0
   -8.6630    5.2070    7.7200 C   0  0  0  0  0  0  0  0  0  0  0  0
  -10.7490    4.8610    6.3730 C   0  0  0  0  0  0  0  0  0  0  0  0
  -11.0350    6.2020    6.1170 C   0  0  0  0  0  0  0  0  0  0  0  0
  -11.7370    6.5580    4.9650 C   0  0  0  0  0  0  0  0  0  0  0  0
  -12.1550    5.5730    4.0710 C   0  0  0  0  0  0  0  0  0  0  0  0
  -11.8700    4.2310    4.3270 C   0  0  0  0  0  0  0  0  0  0  0  0
  -11.1660    3.8760    5.4790 C   0  0  0  0  0  0  0  0  0  0  0  0
  -12.0160    7.8660    4.7150 O   0  0  0  0  0  0  0  0  0  0  0  0
   -6.8990    7.6510    9.7710 O   0  0  0  0  0  0  0  0  0  0  0  0
   -6.8291    2.9887    5.4893 C   0  0  0  0  0  0  0  0  0  0  0  0
   -6.9728    2.0582    4.4458 C   0  0  0  0  0  0  0  0  0  0  0  0
   -8.0678    2.1271    3.5729 C   0  0  0  0  0  0  0  0  0  0  0  0
   -9.0180    3.1402    3.7549 C   0  0  0  0  0  0  0  0  0  0  0  0
   -8.8736    4.0574    4.7981 C   0  0  0  0  0  0  0  0  0  0  0  0
  -10.1252    5.1957    4.7312 S   0  0  0  0  0  0  0  0  0  0  0  0
  -10.8614    4.5115    3.3805 C   0  0  0  0  0  0  0  0  0  0  0  0
  -12.0046    4.9535    2.7173 C   0  0  0  0  0  0  0  0  0  0  0  0
  -12.4405    4.2351    1.5942 C   0  0  0  0  0  0  0  0  0  0  0  0
  -11.7348    3.0987    1.1602 C   0  0  0  0  0  0  0  0  0  0  0  0
  -10.5811    2.6718    1.8384 C   0  0  0  0  0  0  0  0  0  0  0  0
  -10.1478    3.3935    2.9583 C   0  0  0  0  0  0  0  0  0  0  0  0
  1  3  4  0
  1 14  4  0
  1  2  1  0
  3  4  4  0
  4  5  4  0
  5  6  4  0
  5 22  1  0
  6  7  1  0
  6 14  4  0
  7  8  1  0
  8  9  4  0
  8 12  4  0
  9 10  4  0
 10 11  4  0
 11 12  4  0
 12 13  1  0
 13 14  1  0
 13 15  1  6
 15 16  4  0
 15 20  4  0
 16 17  4  0
 17 18  4  0
 17 21  1  0
 18 19  4  0
 19 20  4  0
 23 24  4  0
 24 25  4  0
 25 26  4  0
 26 27  4  0
 27 28  4  0
 28 29  4  0
 29 30  4  0
 30 31  4  0
 31 32  4  0
 32 33  4  0
 33 34  4  0
 34 29  4  0
 34 26  4  0
  2 23  4  0
  2 27  4  0
M  END
$$$$

     RDKit          3D

 38 43  0  0  0  0  0  0  0  0999 V2000
   -7.6410    4.9930    6.8080 C   0  0  0  0  0  0  0  0  0  1  0  0
   -7.7310    4.0530    5.7140 C   0  0  0  0  0  0  0  0  0  2  0  0
   -6.4520    5.6300    6.8680 N   0  0  0  0  0  0  0  0  0  0  0  0
   -6.2260    6.5240    7.8670 N   0  0  0  0  0  0  0  0  0  0  0  0
   -7.1930    6.7500    8.7820 C   0  0  0  0  0  0  0  0  0  0  0  0
   -8.4240    6.1170    8.7580 C   0  0  0  0  0  0  0  0  0  0  0  0
   -9.3950    6.3570    9.7450 N   0  0  0  0  0  0  0  0  0  0  0  0
  -10.5620    5.6840    9.7600 C   0  0  0  0  0  0  0  0  0  0  0  0
  -11.5770    5.6820   10.5960 N   0  0  0  0  0  0  0  0  0  0  0  0
  -12.4690    4.7490   10.1080 N   0  0  0  0  0  0  0  0  0  0  0  0
  -12.0160    4.1880    8.9920 N   0  0  0  0  0  0  0  0  0  0  0  0
  -10.8400    4.7900    8.7610 N   0  0  0  0  0  0  0  0  0  0  0  0
   -9.9950    4.4790    7.6090 C   0  0  0  0  0  0  0  0  0  0  0  0
   -8.6630    5.2070    7.7200 C   0  0  0  0  0  0  0  0  0  0  0  0
  -10.7490    4.8610    6.3730 C   0  0  0  0  0  0  0  0  0  0  0  0
  -11.0350    6.2020    6.1170 C   0  0  0  0  0  0  0  0  0  0  0  0
  -11.7370    6.5580    4.9650 C   0  0  0  0  0  0  0  0  0  0  0  0
  -12.1550    5.5730    4.0710 C   0  0  0  0  0  0  0  0  0  0  0  0
  -11.8700    4.2310    4.3270 C   0  0  0  0  0  0  0  0  0  0  0  0
  -11.1660    3.8760    5.4790 C   0  0  0  0  0  0  0  0  0  0  0  0
  -12.0160    7.8660    4.7150 O   0  0  0  0  0  0  0  0  0  0  0  0
   -6.8990    7.6510    9.7710 O   0  0  0  0  0  0  0  0  0  0  0  0
   -6.8912    3.0235    5.4514 N   0  0  0  0  0  0  0  0  0  0  0  0
   -7.3380    2.3403    4.4075 N   0  0  0  0  0  0  0  0  0  0  0  0
   -8.4869    2.9250    4.0206 C   0  0  0  0  0  0  0  0  0  0  0  0
   -9.4789    2.3433    2.6422 S   0  0  0  0  0  0  0  0  0  0  0  0
  -10.5538    1.2780    3.6714 C   0  0  0  0  0  0  0  0  0  0  0  0
  -11.7509    0.8060    2.8484 C   0  0  0  0  0  0  0  0  0  0  0  0
   -9.8029    0.1031    4.2561 C   0  0  0  0  0  0  0  0  0  0  0  0
   -9.6141    0.0590    5.5013 O   0  0  0  0  0  0  0  0  0  0  0  0
   -9.3852   -1.0108    3.4499 N   0  0  0  0  0  0  0  0  0  0  0  0
  -10.1420   -2.2640    3.5509 C   0  0  0  0  0  0  0  0  0  0  0  0
   -9.2149   -3.4684    3.3706 C   0  0  0  0  0  0  0  0  0  0  0  0
   -8.3864   -3.3271    2.0910 C   0  0  0  0  0  0  0  0  0  0  0  0
   -7.5758   -2.0286    2.1172 C   0  0  0  0  0  0  0  0  0  0  0  0
   -8.4881   -0.8121    2.3052 C   0  0  0  0  0  0  0  0  0  0  0  0
   -8.7875    3.9871    4.7910 N   0  0  0  0  0  0  0  0  0  0  0  0
   -9.9265    4.8931    4.6542 C   0  0  0  0  0  0  0  0  0  0  0  0
  1  3  4  0
  1 14  4  0
  1  2  1  0
  3  4  4  0
  4  5  4  0
  5  6  4  0
  5 22  1  0
  6  7  1  0
  6 14  4  0
  7  8  1  0
  8  9  4  0
  8 12  4  0
  9 10  4  0
 10 11  4  0
 11 12  4  0
 12 13  1  0
 13 14  1  0
 13 15  1  6
 15 16  4  0
 15 20  4  0
 16 17  4  0
 17 18  4  0
 17 21  1  0
 18 19  4  0
 19 20  4  0
 23 24  4  0
 24 25  4  0
 25 26  1  0
 26 27  1  0
 27 28  1  0
 27 29  1  0
 29 30  2  0
 29 31  1  0
 31 32  1  0
 32 33  1  0
 33 34  1  0
 34 35  1  0
 35 36  1  0
 25 37  4  0
 37 38  1  0
 36 31  1  0
  2 23  4  0
  2 37  4  0
M  END
$$$$

     RDKit          3D

 38 43  0  0  0  0  0  0  0  0999 V2000
   -7.6410    4.9930    6.8080 C   0  0  0  0  0  0  0  0  0  1  0  0
   -7.7310    4.0530    5.7140 C   0  0  0  0  0  0  0  0  0  2  0  0
   -6.4520    5.6300    6.8680 N   0  0  0  0  0  0  0  0  0  0  0  0
   -6.2260    6.5240    7.8670 N   0  0  0  0  0  0  0  0  0  0  0  0
   -7.1930    6.7500    8.7820 C   0  0  0  0  0  0  0  0  0  0  0  0
   -8.4240    6.1170    8.7580 C   0  0  0  0  0  0  0  0  0  0  0  0
   -9.3950    6.3570    9.7450 N   0  0  0  0  0  0  0  0  0  0  0  0
  -10.5620    5.6840    9.7600 C   0  0  0  0  0  0  0  0  0  0  0  0
  -11.5770    5.6820   10.5960 N   0  0  0  0  0  0  0  0  0  0  0  0
  -12.4690    4.7490   10.1080 N   0  0  0  0  0  0  0  0  0  0  0  0
  -12.0160    4.1880    8.9920 N   0  0  0  0  0  0  0  0  0  0  0  0
  -10.8400    4.7900    8.7610 N   0  0  0  0  0  0  0  0  0  0  0  0
   -9.9950    4.4790    7.6090 C   0  0  0  0  0  0  0  0  0  0  0  0
   -8.6630    5.2070    7.7200 C   0  0  0  0  0  0  0  0  0  0  0  0
  -10.7490    4.8610    6.3730 C   0  0  0  0  0  0  0  0  0  0  0  0
  -11.0350    6.2020    6.1170 C   0  0  0  0  0  0  0  0  0  0  0  0
  -11.7370    6.5580    4.9650 C   0  0  0  0  0  0  0  0  0  0  0  0
  -12.1550    5.5730    4.0710 C   0  0  0  0  0  0  0  0  0  0  0  0
  -11.8700    4.2310    4.3270 C   0  0  0  0  0  0  0  0  0  0  0  0
  -11.1660    3.8760    5.4790 C   0  0  0  0  0  0  0  0  0  0  0  0
  -12.0160    7.8660    4.7150 O   0  0  0  0  0  0  0  0  0  0  0  0
   -6.8990    7.6510    9.7710 O   0  0  0  0  0  0  0  0  0  0  0  0
   -6.9280    2.9832    5.4957 N   0  0  0  0  0  0  0  0  0  0  0  0
   -7.3557    2.3212    4.4307 N   0  0  0  0  0  0  0  0  0  0  0  0
   -8.4449    2.9683    3.9759 C   0  0  0  0  0  0  0  0  0  0  0  0
   -9.4168    2.4118    2.5671 S   0  0  0  0  0  0  0  0  0  0  0  0
   -8.4110    3.1362    1.2038 C   0  0  0  0  0  0  0  0  0  0  0  0
   -8.0638    4.6129    1.4131 C   0  0  0  0  0  0  0  0  0  0  0  0
   -7.1735    2.3141    0.9386 C   0  0  0  0  0  0  0  0  0  0  0  0
   -6.2926    2.2064    1.8332 O   0  0  0  0  0  0  0  0  0  0  0  0
   -6.9933    1.6249   -0.3107 N   0  0  0  0  0  0  0  0  0  0  0  0
   -7.2209    2.3007   -1.5949 C   0  0  0  0  0  0  0  0  0  0  0  0
   -8.0969    1.4321   -2.5108 C   0  0  0  0  0  0  0  0  0  0  0  0
   -7.8015   -0.0802   -2.3910 C   0  0  0  0  0  0  0  0  0  0  0  0
   -6.4664   -0.3712   -1.6947 C   0  0  0  0  0  0  0  0  0  0  0  0
   -6.4448    0.2613   -0.2957 C   0  0  0  0  0  0  0  0  0  0  0  0
   -8.7407    4.0366    4.7426 N   0  0  0  0  0  0  0  0  0  0  0  0
   -9.8879    4.9357    4.6282 C   0  0  0  0  0  0  0  0  0  0  0  0
  1  3  4  0
  1 14  4  0
  1  2  1  0
  3  4  4  0
  4  5  4  0
  5  6  4  0
  5 22  1  0
  6  7  1  0
  6 14  4  0
  7  8  1  0
  8  9  4  0
  8 12  4  0
  9 10  4  0
 10 11  4  0
 11 12  4  0
 12 13  1  0
 13 14  1  0
 13 15  1  6
 15 16  4  0
 15 20  4  0
 16 17  4  0
 17 18  4  0
 17 21  1  0
 18 19  4  0
 19 20  4  0
 23 24  4  0
 24 25  4  0
 25 26  1  0
 26 27  1  0
 27 28  1  0
 27 29  1  0
 29 30  2  0
 29 31  1  0
 31 32  1  0
 32 33  1  0
 33 34  1  0
 34 35  1  0
 35 36  1  0
 25 37  4  0
 37 38  1  0
 36 31  1  0
  2 23  4  0
  2 37  4  0
M  END
$$$$

     RDKit          3D

 48 56  0  0  0  0  0  0  0  0999 V2000
   -7.6410    4.9930    6.8080 C   0  0  0  0  0  0  0  0  0  1  0  0
   -7.7310    4.0530    5.7140 C   0  0  0  0  0  0  0  0  0  2  0  0
   -6.4520    5.6300    6.8680 N   0  0  0  0  0  0  0  0  0  0  0  0
   -6.2260    6.5240    7.8670 N   0  0  0  0  0  0  0  0  0  0  0  0
   -7.1930    6.7500    8.7820 C   0  0  0  0  0  0  0  0  0  0  0  0
   -8.4240    6.1170    8.7580 C   0  0  0  0  0  0  0  0  0  0  0  0
   -9.3950    6.3570    9.7450 N   0  0  0  0  0  0  0  0  0  0  0  0
  -10.5620    5.6840    9.7600 C   0  0  0  0  0  0  0  0  0  0  0  0
  -11.5770    5.6820   10.5960 N   0  0  0  0  0  0  0  0  0  0  0  0
  -12.4690    4.7490   10.1080 N   0  0  0  0  0  0  0  0  0  0  0  0
  -12.0160    4.1880    8.9920 N   0  0  0  0  0  0  0  0  0  0  0  0
  -10.8400    4.7900    8.7610 N   0  0  0  0  0  0  0  0  0  0  0  0
   -9.9950    4.4790    7.6090 C   0  0  0  0  0  0  0  0  0  0  0  0
   -8.6630    5.2070    7.7200 C   0  0  0  0  0  0  0  0  0  0  0  0
  -10.7490    4.8610    6.3730 C   0  0  0  0  0  0  0  0  0  0  0  0
  -11.0350    6.2020    6.1170 C   0  0  0  0  0  0  0  0  0  0  0  0
  -11.7370    6.5580    4.9650 C   0  0  0  0  0  0  0  0  0  0  0  0
  -12.1550    5.5730    4.0710 C   0  0  0  0  0  0  0  0  0  0  0  0
  -11.8700    4.2310    4.3270 C   0  0  0  0  0  0  0  0  0  0  0  0
  -11.1660    3.8760    5.4790 C   0  0  0  0  0  0  0  0  0  0  0  0
  -12.0160    7.8660    4.7150 O   0  0  0  0  0  0  0  0  0  0  0  0
   -6.8990    7.6510    9.7710 O   0  0  0  0  0  0  0  0  0  0  0  0
   -6.7780    3.3271    5.1165 N   0  0  0  0  0  0  0  0  0  0  0  0
   -7.3022    2.5137    4.2058 N   0  0  0  0  0  0  0  0  0  0  0  0
   -8.6328    2.7165    4.2405 C   0  0  0  0  0  0  0  0  0  0  0  0
   -9.5990    2.1025    3.4384 C   0  0  0  0  0  0  0  0  0  0  0  0
   -9.2941    1.1189    2.4937 C   0  0  0  0  0  0  0  0  0  0  0  0
  -10.3178    0.5341    1.7305 C   0  0  0  0  0  0  0  0  0  1  0  0
   -9.9739   -0.5733    0.8062 C   0  0  0  0  0  0  0  0  0  2  0  0
  -10.6298   -1.8135    0.9017 C   0  0  0  0  0  0  0  0  0  0  0  0
  -10.3037   -2.8528    0.0255 C   0  0  0  0  0  0  0  0  0  0  0  0
   -9.3155   -2.6670   -0.9447 C   0  0  0  0  0  0  0  0  0  0  0  0
   -8.6491   -1.4424   -1.0383 C   0  0  0  0  0  0  0  0  0  0  0  0
   -8.9728   -0.3994   -0.1649 C   0  0  0  0  0  0  0  0  0  0  0  0
  -11.6516    0.9863    1.9148 C   0  0  0  0  0  0  0  0  0  1  0  0
  -12.7832    0.4827    1.1040 C   0  0  0  0  0  0  0  0  0  2  0  0
  -12.7066    0.4443   -0.2988 C   0  0  0  0  0  0  0  0  0  0  0  0
  -13.7853   -0.0256   -1.0526 C   0  0  0  0  0  0  0  0  0  0  0  0
  -14.9582   -0.4593   -0.4166 C   0  0  0  0  0  0  0  0  0  0  0  0
  -16.1336   -0.9329   -1.2313 C   0  0  0  0  0  0  0  0  0  0  0  0
  -17.0079    0.1872   -1.5759 N   0  0  0  0  0  0  0  0  0  0  0  0
  -15.0500   -0.3861    0.9817 C   0  0  0  0  0  0  0  0  0  0  0  0
  -13.9708    0.0830    1.7361 C   0  0  0  0  0  0  0  0  0  0  0  0
  -11.9143    1.9416    2.8503 N   0  0  0  0  0  0  0  0  0  0  0  0
  -10.9415    2.5043    3.6120 C   0  0  0  0  0  0  0  0  0  0  0  0
  -11.2670    3.5001    4.5540 C   0  0  0  0  0  0  0  0  0  0  0  0
  -10.2502    4.0815    5.3267 C   0  0  0  0  0  0  0  0  0  0  0  0
   -8.9746    3.6426    5.1497 N   0  0  0  0  0  0  0  0  0  0  0  0
  1  3  4  0
  1 14  4  0
  1  2  1  0
  3  4  4  0
  4  5  4  0
  5  6  4  0
  5 22  1  0
  6  7  1  0
  6 14  4  0
  7  8  1  0
  8  9  4  0
  8 12  4  0
  9 10  4  0
 10 11  4  0
 11 12  4  0
 12 13  1  0
 13 14  1  0
 13 15  1  6
 15 16  4  0
 15 20  4  0
 16 17  4  0
 17 18  4  0
 17 21  1  0
 18 19  4  0
 19 20  4  0
 23 24  4  0
 24 25  4  0
 25 26  4  0
 26 27  4  0
 27 28  4  0
 28 29  1  0
 29 30  4  0
 30 31  4  0
 31 32  4  0
 32 33  4  0
 33 34  4  0
 28 35  4  0
 35 36  1  0
 36 37  4  0
 37 38  4  0
 38 39  4  0
 39 40  1  0
 40 41  1  0
 39 42  4  0
 42 43  4  0
 35 44  4  0
 44 45  4  0
 45 46  4  0
 46 47  4  0
 47 48  4  0
 48 25  4  0
 45 26  4  0
 34 29  4  0
 43 36  4  0
  2 23  4  0
  2 48  4  0
M  CHG  1  41   1
M  END
$$$$

     RDKit          3D

 34 39  0  0  0  0  0  0  0  0999 V2000
   -7.6410    4.9930    6.8080 C   0  0  0  0  0  0  0  0  0  1  0  0
   -7.7310    4.0530    5.7140 C   0  0  0  0  0  0  0  0  0  2  0  0
   -6.4520    5.6300    6.8680 N   0  0  0  0  0  0  0  0  0  0  0  0
   -6.2260    6.5240    7.8670 N   0  0  0  0  0  0  0  0  0  0  0  0
   -7.1930    6.7500    8.7820 C   0  0  0  0  0  0  0  0  0  0  0  0
   -8.4240    6.1170    8.7580 C   0  0  0  0  0  0  0  0  0  0  0  0
   -9.3950    6.3570    9.7450 N   0  0  0  0  0  0  0  0  0  0  0  0
  -10.5620    5.6840    9.7600 C   0  0  0  0  0  0  0  0  0  0  0  0
  -11.5770    5.6820   10.5960 N   0  0  0  0  0  0  0  0  0  0  0  0
  -12.4690    4.7490   10.1080 N   0  0  0  0  0  0  0  0  0  0  0  0
  -12.0160    4.1880    8.9920 N   0  0  0  0  0  0  0  0  0  0  0  0
  -10.8400    4.7900    8.7610 N   0  0  0  0  0  0  0  0  0  0  0  0
   -9.9950    4.4790    7.6090 C   0  0  0  0  0  0  0  0  0  0  0  0
   -8.6630    5.2070    7.7200 C   0  0  0  0  0  0  0  0  0  0  0  0
  -10.7490    4.8610    6.3730 C   0  0  0  0  0  0  0  0  0  0  0  0
  -11.0350    6.2020    6.1170 C   0  0  0  0  0  0  0  0  0  0  0  0
  -11.7370    6.5580    4.9650 C   0  0  0  0  0  0  0  0  0  0  0  0
  -12.1550    5.5730    4.0710 C   0  0  0  0  0  0  0  0  0  0  0  0
  -11.8700    4.2310    4.3270 C   0  0  0  0  0  0  0  0  0  0  0  0
  -11.1660    3.8760    5.4790 C   0  0  0  0  0  0  0  0  0  0  0  0
  -12.0160    7.8660    4.7150 O   0  0  0  0  0  0  0  0  0  0  0  0
   -6.8990    7.6510    9.7710 O   0  0  0  0  0  0  0  0  0  0  0  0
   -6.7453    3.1258    5.3801 C   0  0  0  0  0  0  0  0  0  0  0  0
   -6.9151    2.1313    4.4180 C   0  0  0  0  0  0  0  0  0  0  0  0
   -8.1328    1.9993    3.7519 C   0  0  0  0  0  0  0  0  0  0  0  0
   -9.1930    2.8825    4.0287 C   0  0  0  0  0  0  0  0  0  0  0  0
  -10.4302    2.8008    3.3675 O   0  0  0  0  0  0  0  0  0  0  0  0
  -10.8091    1.7817    2.4395 C   0  0  0  0  0  0  0  0  0  0  0  0
  -12.1311    2.1281    1.7945 C   0  0  0  0  0  0  0  0  0  0  0  0
  -12.7646    0.7806    1.5132 C   0  0  0  0  0  0  0  0  0  0  0  0
  -12.2578   -0.1601    2.5162 N   0  0  0  0  0  0  0  0  0  0  0  0
  -11.0725    0.4481    3.1351 C   0  0  0  0  0  0  0  0  0  0  0  0
   -9.0174    3.8984    4.9830 C   0  0  0  0  0  0  0  0  0  0  0  0
  -10.0614    4.8068    5.1752 O   0  0  0  0  0  0  0  0  0  0  0  0
  1  3  4  0
  1 14  4  0
  1  2  1  0
  3  4  4  0
  4  5  4  0
  5  6  4  0
  5 22  1  0
  6  7  1  0
  6 14  4  0
  7  8  1  0
  8  9  4  0
  8 12  4  0
  9 10  4  0
 10 11  4  0
 11 12  4  0
 12 13  1  0
 13 14  1  0
 13 15  1  6
 15 16  4  0
 15 20  4  0
 16 17  4  0
 17 18  4  0
 17 21  1  0
 18 19  4  0
 19 20  4  0
 23 24  4  0
 24 25  4  0
 25 26  4  0
 26 27  1  0
 27 28  1  0
 28 29  1  0
 29 30  1  0
 30 31  1  0
 31 32  1  0
 26 33  4  0
 33 34  1  0
 32 28  1  0
  2 23  4  0
  2 33  4  0
M  CHG  1  31   1
M  END
$$$$

     RDKit          3D

 34 39  0  0  0  0  0  0  0  0999 V2000
   -7.6410    4.9930    6.8080 C   0  0  0  0  0  0  0  0  0  1  0  0
   -7.7310    4.0530    5.7140 C   0  0  0  0  0  0  0  0  0  2  0  0
   -6.4520    5.6300    6.8680 N   0  0  0  0  0  0  0  0  0  0  0  0
   -6.2260    6.5240    7.8670 N   0  0  0  0  0  0  0  0  0  0  0  0
   -7.1930    6.7500    8.7820 C   0  0  0  0  0  0  0  0  0  0  0  0
   -8.4240    6.1170    8.7580 C   0  0  0  0  0  0  0  0  0  0  0  0
   -9.3950    6.3570    9.7450 N   0  0  0  0  0  0  0  0  0  0  0  0
  -10.5620    5.6840    9.7600 C   0  0  0  0  0  0  0  0  0  0  0  0
  -11.5770    5.6820   10.5960 N   0  0  0  0  0  0  0  0  0  0  0  0
  -12.4690    4.7490   10.1080 N   0  0  0  0  0  0  0  0  0  0  0  0
  -12.0160    4.1880    8.9920 N   0  0  0  0  0  0  0  0  0  0  0  0
  -10.8400    4.7900    8.7610 N   0  0  0  0  0  0  0  0  0  0  0  0
   -9.9950    4.4790    7.6090 C   0  0  0  0  0  0  0  0  0  0  0  0
   -8.6630    5.2070    7.7200 C   0  0  0  0  0  0  0  0  0  0  0  0
  -10.7490    4.8610    6.3730 C   0  0  0  0  0  0  0  0  0  0  0  0
  -11.0350    6.2020    6.1170 C   0  0  0  0  0  0  0  0  0  0  0  0
  -11.7370    6.5580    4.9650 C   0  0  0  0  0  0  0  0  0  0  0  0
  -12.1550    5.5730    4.0710 C   0  0  0  0  0  0  0  0  0  0  0  0
  -11.8700    4.2310    4.3270 C   0  0  0  0  0  0  0  0  0  0  0  0
  -11.1660    3.8760    5.4790 C   0  0  0  0  0  0  0  0  0  0  0  0
  -12.0160    7.8660    4.7150 O   0  0  0  0  0  0  0  0  0  0  0  0
   -6.8990    7.6510    9.7710 O   0  0  0  0  0  0  0  0  0  0  0  0
   -6.7436    3.1256    5.3888 C   0  0  0  0  0  0  0  0  0  0  0  0
   -6.9100    2.1230    4.4379 C   0  0  0  0  0  0  0  0  0  0  0  0
   -8.1276    1.9821    3.7771 C   0  0  0  0  0  0  0  0  0  0  0  0
   -9.1901    2.8572    4.0293 C   0  0  0  0  0  0  0  0  0  0  0  0
  -10.3712    2.6307    3.2956 O   0  0  0  0  0  0  0  0  0  0  0  0
  -11.5715    3.4074    3.3122 C   0  0  0  0  0  0  0  0  0  0  0  0
  -12.6515    2.6676    2.5548 C   0  0  0  0  0  0  0  0  0  0  0  0
  -12.4867    3.1187    1.1142 C   0  0  0  0  0  0  0  0  0  0  0  0
  -11.7975    4.4141    1.1249 N   0  0  0  0  0  0  0  0  0  0  0  0
  -11.3937    4.6908    2.5081 C   0  0  0  0  0  0  0  0  0  0  0  0
   -9.0196    3.8991    4.9805 C   0  0  0  0  0  0  0  0  0  0  0  0
  -10.0372    4.8334    5.1823 O   0  0  0  0  0  0  0  0  0  0  0  0
  1  3  4  0
  1 14  4  0
  1  2  1  0
  3  4  4  0
  4  5  4  0
  5  6  4  0
  5 22  1  0
  6  7  1  0
  6 14  4  0
  7  8  1  0
  8  9  4  0
  8 12  4  0
  9 10  4  0
 10 11  4  0
 11 12  4  0
 12 13  1  0
 13 14  1  0
 13 15  1  6
 15 16  4  0
 15 20  4  0
 16 17  4  0
 17 18  4  0
 17 21  1  0
 18 19  4  0
 19 20  4  0
 23 24  4  0
 24 25  4  0
 25 26  4  0
 26 27  1  0
 27 28  1  0
 28 29  1  0
 29 30  1  0
 30 31  1  0
 31 32  1  0
 26 33  4  0
 33 34  1  0
 32 28  1  0
  2 23  4  0
  2 33  4  0
M  CHG  1  31   1
M  END
$$$$

     RDKit          3D

 41 46  0  0  0  0  0  0  0  0999 V2000
   -7.6410    4.9930    6.8080 C   0  0  0  0  0  0  0  0  0  1  0  0
   -7.7310    4.0530    5.7140 C   0  0  0  0  0  0  0  0  0  2  0  0
   -6.4520    5.6300    6.8680 N   0  0  0  0  0  0  0  0  0  0  0  0
   -6.2260    6.5240    7.8670 N   0  0  0  0  0  0  0  0  0  0  0  0
   -7.1930    6.7500    8.7820 C   0  0  0  0  0  0  0  0  0  0  0  0
   -8.4240    6.1170    8.7580 C   0  0  0  0  0  0  0  0  0  0  0  0
   -9.3950    6.3570    9.7450 N   0  0  0  0  0  0  0  0  0  0  0  0
  -10.5620    5.6840    9.7600 C   0  0  0  0  0  0  0  0  0  0  0  0
  -11.5770    5.6820   10.5960 N   0  0  0  0  0  0  0  0  0  0  0  0
  -12.4690    4.7490   10.1080 N   0  0  0  0  0  0  0  0  0  0  0  0
  -12.0160    4.1880    8.9920 N   0  0  0  0  0  0  0  0  0  0  0  0
  -10.8400    4.7900    8.7610 N   0  0  0  0  0  0  0  0  0  0  0  0
   -9.9950    4.4790    7.6090 C   0  0  0  0  0  0  0  0  0  0  0  0
   -8.6630    5.2070    7.7200 C   0  0  0  0  0  0  0  0  0  0  0  0
  -10.7490    4.8610    6.3730 C   0  0  0  0  0  0  0  0  0  0  0  0
  -11.0350    6.2020    6.1170 C   0  0  0  0  0  0  0  0  0  0  0  0
  -11.7370    6.5580    4.9650 C   0  0  0  0  0  0  0  0  0  0  0  0
  -12.1550    5.5730    4.0710 C   0  0  0  0  0  0  0  0  0  0  0  0
  -11.8700    4.2310    4.3270 C   0  0  0  0  0  0  0  0  0  0  0  0
  -11.1660    3.8760    5.4790 C   0  0  0  0  0  0  0  0  0  0  0  0
  -12.0160    7.8660    4.7150 O   0  0  0  0  0  0  0  0  0  0  0  0
   -6.8990    7.6510    9.7710 O   0  0  0  0  0  0  0  0  0  0  0  0
   -6.8054    3.1680    5.2892 N   0  0  0  0  0  0  0  0  0  0  0  0
   -7.2906    2.4453    4.2868 N   0  0  0  0  0  0  0  0  0  0  0  0
   -8.5566    2.8558    4.0837 C   0  0  0  0  0  0  0  0  0  0  0  0
   -9.6157    2.2258    2.7785 S   0  0  0  0  0  0  0  0  0  0  0  0
   -9.1360    3.5011    1.5556 C   0  0  0  0  0  0  0  0  0  0  0  0
   -7.8254    3.1209    0.8638 C   0  0  0  0  0  0  0  0  0  0  0  0
  -10.2389    3.6634    0.5472 C   0  0  0  0  0  0  0  0  0  0  0  0
  -10.7604    4.7998    0.3821 O   0  0  0  0  0  0  0  0  0  0  0  0
  -10.6866    2.5459   -0.2351 N   0  0  0  0  0  0  0  0  0  0  0  0
  -11.7079    2.6792   -1.2342 C   0  0  0  0  0  0  0  0  0  0  0  0
  -13.0515    2.9290   -0.8642 C   0  0  0  0  0  0  0  0  0  0  0  0
  -13.4626    3.0524    0.5789 C   0  0  0  0  0  0  0  0  0  0  0  0
  -14.0229    3.0929   -1.8638 C   0  0  0  0  0  0  0  0  0  0  0  0
  -13.6812    2.9687   -3.2099 C   0  0  0  0  0  0  0  0  0  0  0  0
  -12.3658    2.6872   -3.5772 C   0  0  0  0  0  0  0  0  0  0  0  0
  -11.3697    2.5441   -2.5984 C   0  0  0  0  0  0  0  0  0  0  0  0
   -9.9542    2.2419   -3.0100 C   0  0  0  0  0  0  0  0  0  0  0  0
   -8.8961    3.8260    4.9482 N   0  0  0  0  0  0  0  0  0  0  0  0
  -10.0672    4.6019    4.9307 N   0  0  0  0  0  0  0  0  0  0  0  0
  1  3  4  0
  1 14  4  0
  1  2  1  0
  3  4  4  0
  4  5  4  0
  5  6  4  0
  5 22  1  0
  6  7  1  0
  6 14  4  0
  7  8  1  0
  8  9  4  0
  8 12  4  0
  9 10  4  0
 10 11  4  0
 11 12  4  0
 12 13  1  0
 13 14  1  0
 13 15  1  6
 15 16  4  0
 15 20  4  0
 16 17  4  0
 17 18  4  0
 17 21  1  0
 18 19  4  0
 19 20  4  0
 23 24  4  0
 24 25  4  0
 25 26  1  0
 26 27  1  0
 27 28  1  0
 27 29  1  0
 29 30  2  0
 29 31  1  0
 31 32  1  0
 32 33  4  0
 33 34  1  0
 33 35  4  0
 35 36  4  0
 36 37  4  0
 37 38  4  0
 38 39  1  0
 25 40  4  0
 40 41  1  0
 38 32  4  0
  2 23  4  0
  2 40  4  0
M  END
$$$$

     RDKit          3D

 41 46  0  0  0  0  0  0  0  0999 V2000
   -7.6410    4.9930    6.8080 C   0  0  0  0  0  0  0  0  0  1  0  0
   -7.7310    4.0530    5.7140 C   0  0  0  0  0  0  0  0  0  2  0  0
   -6.4520    5.6300    6.8680 N   0  0  0  0  0  0  0  0  0  0  0  0
   -6.2260    6.5240    7.8670 N   0  0  0  0  0  0  0  0  0  0  0  0
   -7.1930    6.7500    8.7820 C   0  0  0  0  0  0  0  0  0  0  0  0
   -8.4240    6.1170    8.7580 C   0  0  0  0  0  0  0  0  0  0  0  0
   -9.3950    6.3570    9.7450 N   0  0  0  0  0  0  0  0  0  0  0  0
  -10.5620    5.6840    9.7600 C   0  0  0  0  0  0  0  0  0  0  0  0
  -11.5770    5.6820   10.5960 N   0  0  0  0  0  0  0  0  0  0  0  0
  -12.4690    4.7490   10.1080 N   0  0  0  0  0  0  0  0  0  0  0  0
  -12.0160    4.1880    8.9920 N   0  0  0  0  0  0  0  0  0  0  0  0
  -10.8400    4.7900    8.7610 N   0  0  0  0  0  0  0  0  0  0  0  0
   -9.9950    4.4790    7.6090 C   0  0  0  0  0  0  0  0  0  0  0  0
   -8.6630    5.2070    7.7200 C   0  0  0  0  0  0  0  0  0  0  0  0
  -10.7490    4.8610    6.3730 C   0  0  0  0  0  0  0  0  0  0  0  0
  -11.0350    6.2020    6.1170 C   0  0  0  0  0  0  0  0  0  0  0  0
  -11.7370    6.5580    4.9650 C   0  0  0  0  0  0  0  0  0  0  0  0
  -12.1550    5.5730    4.0710 C   0  0  0  0  0  0  0  0  0  0  0  0
  -11.8700    4.2310    4.3270 C   0  0  0  0  0  0  0  0  0  0  0  0
  -11.1660    3.8760    5.4790 C   0  0  0  0  0  0  0  0  0  0  0  0
  -12.0160    7.8660    4.7150 O   0  0  0  0  0  0  0  0  0  0  0  0
   -6.8990    7.6510    9.7710 O   0  0  0  0  0  0  0  0  0  0  0  0
   -6.7980    3.1810    5.2796 N   0  0  0  0  0  0  0  0  0  0  0  0
   -7.2908    2.4313    4.3013 N   0  0  0  0  0  0  0  0  0  0  0  0
   -8.5705    2.8098    4.1241 C   0  0  0  0  0  0  0  0  0  0  0  0
   -9.6530    2.1184    2.8716 S   0  0  0  0  0  0  0  0  0  0  0  0
  -10.4349    0.9030    3.9941 C   0  0  0  0  0  0  0  0  0  0  0  0
   -9.5562   -0.3407    4.1358 C   0  0  0  0  0  0  0  0  0  0  0  0
  -11.7836    0.5323    3.4454 C   0  0  0  0  0  0  0  0  0  0  0  0
  -11.8682   -0.0138    2.3103 O   0  0  0  0  0  0  0  0  0  0  0  0
  -12.9715    0.8018    4.2035 N   0  0  0  0  0  0  0  0  0  0  0  0
  -14.2718    0.4446    3.7157 C   0  0  0  0  0  0  0  0  0  0  0  0
  -14.9397   -0.6710    4.2680 C   0  0  0  0  0  0  0  0  0  0  0  0
  -14.3014   -1.4823    5.3628 C   0  0  0  0  0  0  0  0  0  0  0  0
  -16.2205   -1.0112    3.8068 C   0  0  0  0  0  0  0  0  0  0  0  0
  -16.8302   -0.2627    2.8007 C   0  0  0  0  0  0  0  0  0  0  0  0
  -16.1764    0.8408    2.2536 C   0  0  0  0  0  0  0  0  0  0  0  0
  -14.8977    1.2076    2.6999 C   0  0  0  0  0  0  0  0  0  0  0  0
  -14.2780    2.4576    2.1324 C   0  0  0  0  0  0  0  0  0  0  0  0
   -8.9075    3.7927    4.9748 N   0  0  0  0  0  0  0  0  0  0  0  0
  -10.1054    4.5268    4.9894 N   0  0  0  0  0  0  0  0  0  0  0  0
  1  3  4  0
  1 14  4  0
  1  2  1  0
  3  4  4  0
  4  5  4  0
  5  6  4  0
  5 22  1  0
  6  7  1  0
  6 14  4  0
  7  8  1  0
  8  9  4  0
  8 12  4  0
  9 10  4  0
 10 11  4  0
 11 12  4  0
 12 13  1  0
 13 14  1  0
 13 15  1  6
 15 16  4  0
 15 20  4  0
 16 17  4  0
 17 18  4  0
 17 21  1  0
 18 19  4  0
 19 20  4  0
 23 24  4  0
 24 25  4  0
 25 26  1  0
 26 27  1  0
 27 28  1  0
 27 29  1  0
 29 30  2  0
 29 31  1  0
 31 32  1  0
 32 33  4  0
 33 34  1  0
 33 35  4  0
 35 36  4  0
 36 37  4  0
 37 38  4  0
 38 39  1  0
 25 40  4  0
 40 41  1  0
 38 32  4  0
  2 23  4  0
  2 40  4  0
M  END
$$$$

     RDKit          3D

 41 46  0  0  0  0  0  0  0  0999 V2000
   -7.6410    4.9930    6.8080 C   0  0  0  0  0  0  0  0  0  1  0  0
   -7.7310    4.0530    5.7140 C   0  0  0  0  0  0  0  0  0  2  0  0
   -6.4520    5.6300    6.8680 N   0  0  0  0  0  0  0  0  0  0  0  0
   -6.2260    6.5240    7.8670 N   0  0  0  0  0  0  0  0  0  0  0  0
   -7.1930    6.7500    8.7820 C   0  0  0  0  0  0  0  0  0  0  0  0
   -8.4240    6.1170    8.7580 C   0  0  0  0  0  0  0  0  0  0  0  0
   -9.3950    6.3570    9.7450 N   0  0  0  0  0  0  0  0  0  0  0  0
  -10.5620    5.6840    9.7600 C   0  0  0  0  0  0  0  0  0  0  0  0
  -11.5770    5.6820   10.5960 N   0  0  0  0  0  0  0  0  0  0  0  0
  -12.4690    4.7490   10.1080 N   0  0  0  0  0  0  0  0  0  0  0  0
  -12.0160    4.1880    8.9920 N   0  0  0  0  0  0  0  0  0  0  0  0
  -10.8400    4.7900    8.7610 N   0  0  0  0  0  0  0  0  0  0  0  0
   -9.9950    4.4790    7.6090 C   0  0  0  0  0  0  0  0  0  0  0  0
   -8.6630    5.2070    7.7200 C   0  0  0  0  0  0  0  0  0  0  0  0
  -10.7490    4.8610    6.3730 C   0  0  0  0  0  0  0  0  0  0  0  0
  -11.0350    6.2020    6.1170 C   0  0  0  0  0  0  0  0  0  0  0  0
  -11.7370    6.5580    4.9650 C   0  0  0  0  0  0  0  0  0  0  0  0
  -12.1550    5.5730    4.0710 C   0  0  0  0  0  0  0  0  0  0  0  0
  -11.8700    4.2310    4.3270 C   0  0  0  0  0  0  0  0  0  0  0  0
  -11.1660    3.8760    5.4790 C   0  0  0  0  0  0  0  0  0  0  0  0
  -12.0160    7.8660    4.7150 O   0  0  0  0  0  0  0  0  0  0  0  0
   -6.8990    7.6510    9.7710 O   0  0  0  0  0  0  0  0  0  0  0  0
   -6.7965    3.1834    5.2776 N   0  0  0  0  0  0  0  0  0  0  0  0
   -7.2881    2.4349    4.2978 N   0  0  0  0  0  0  0  0  0  0  0  0
   -8.5670    2.8153    4.1180 C   0  0  0  0  0  0  0  0  0  0  0  0
   -9.6480    2.1220    2.8651 S   0  0  0  0  0  0  0  0  0  0  0  0
   -9.0132    3.1463    1.4869 C   0  0  0  0  0  0  0  0  0  0  0  0
   -9.3880    4.6226    1.6552 C   0  0  0  0  0  0  0  0  0  0  0  0
   -9.4931    2.5661    0.1754 C   0  0  0  0  0  0  0  0  0  0  0  0
   -8.6362    2.1281   -0.6384 O   0  0  0  0  0  0  0  0  0  0  0  0
  -10.8866    2.4040   -0.1383 N   0  0  0  0  0  0  0  0  0  0  0  0
  -11.8575    3.4401    0.0611 C   0  0  0  0  0  0  0  0  0  0  0  0
  -11.8474    4.5876   -0.7672 C   0  0  0  0  0  0  0  0  0  0  0  0
  -10.8646    4.7226   -1.8998 C   0  0  0  0  0  0  0  0  0  0  0  0
  -12.7619    5.6238   -0.5239 C   0  0  0  0  0  0  0  0  0  0  0  0
  -13.7090    5.5061    0.4920 C   0  0  0  0  0  0  0  0  0  0  0  0
  -13.7659    4.3485    1.2667 C   0  0  0  0  0  0  0  0  0  0  0  0
  -12.8613    3.2990    1.0481 C   0  0  0  0  0  0  0  0  0  0  0  0
  -12.9725    2.0699    1.9084 C   0  0  0  0  0  0  0  0  0  0  0  0
   -8.9082    3.7907    4.9765 N   0  0  0  0  0  0  0  0  0  0  0  0
  -10.1110    4.5165    4.9996 N   0  0  0  0  0  0  0  0  0  0  0  0
  1  3  4  0
  1 14  4  0
  1  2  1  0
  3  4  4  0
  4  5  4  0
  5  6  4  0
  5 22  1  0
  6  7  1  0
  6 14  4  0
  7  8  1  0
  8  9  4  0
  8 12  4  0
  9 10  4  0
 10 11  4  0
 11 12  4  0
 12 13  1  0
 13 14  1  0
 13 15  1  6
 15 16  4  0
 15 20  4  0
 16 17  4  0
 17 18  4  0
 17 21  1  0
 18 19  4  0
 19 20  4  0
 23 24  4  0
 24 25  4  0
 25 26  1  0
 26 27  1  0
 27 28  1  0
 27 29  1  0
 29 30  2  0
 29 31  1  0
 31 32  1  0
 32 33  4  0
 33 34  1  0
 33 35  4  0
 35 36  4  0
 36 37  4  0
 37 38  4  0
 38 39  1  0
 25 40  4  0
 40 41  1  0
 38 32  4  0
  2 23  4  0
  2 40  4  0
M  END
$$$$

     RDKit          3D

 41 46  0  0  0  0  0  0  0  0999 V2000
   -7.6410    4.9930    6.8080 C   0  0  0  0  0  0  0  0  0  1  0  0
   -7.7310    4.0530    5.7140 C   0  0  0  0  0  0  0  0  0  2  0  0
   -6.4520    5.6300    6.8680 N   0  0  0  0  0  0  0  0  0  0  0  0
   -6.2260    6.5240    7.8670 N   0  0  0  0  0  0  0  0  0  0  0  0
   -7.1930    6.7500    8.7820 C   0  0  0  0  0  0  0  0  0  0  0  0
   -8.4240    6.1170    8.7580 C   0  0  0  0  0  0  0  0  0  0  0  0
   -9.3950    6.3570    9.7450 N   0  0  0  0  0  0  0  0  0  0  0  0
  -10.5620    5.6840    9.7600 C   0  0  0  0  0  0  0  0  0  0  0  0
  -11.5770    5.6820   10.5960 N   0  0  0  0  0  0  0  0  0  0  0  0
  -12.4690    4.7490   10.1080 N   0  0  0  0  0  0  0  0  0  0  0  0
  -12.0160    4.1880    8.9920 N   0  0  0  0  0  0  0  0  0  0  0  0
  -10.8400    4.7900    8.7610 N   0  0  0  0  0  0  0  0  0  0  0  0
   -9.9950    4.4790    7.6090 C   0  0  0  0  0  0  0  0  0  0  0  0
   -8.6630    5.2070    7.7200 C   0  0  0  0  0  0  0  0  0  0  0  0
  -10.7490    4.8610    6.3730 C   0  0  0  0  0  0  0  0  0  0  0  0
  -11.0350    6.2020    6.1170 C   0  0  0  0  0  0  0  0  0  0  0  0
  -11.7370    6.5580    4.9650 C   0  0  0  0  0  0  0  0  0  0  0  0
  -12.1550    5.5730    4.0710 C   0  0  0  0  0  0  0  0  0  0  0  0
  -11.8700    4.2310    4.3270 C   0  0  0  0  0  0  0  0  0  0  0  0
  -11.1660    3.8760    5.4790 C   0  0  0  0  0  0  0  0  0  0  0  0
  -12.0160    7.8660    4.7150 O   0  0  0  0  0  0  0  0  0  0  0  0
   -6.8990    7.6510    9.7710 O   0  0  0  0  0  0  0  0  0  0  0  0
   -6.7917    3.1979    5.2611 N   0  0  0  0  0  0  0  0  0  0  0  0
   -7.2845    2.4515    4.2805 N   0  0  0  0  0  0  0  0  0  0  0  0
   -8.5712    2.8134    4.1208 C   0  0  0  0  0  0  0  0  0  0  0  0
   -9.6513    2.1319    2.8605 S   0  0  0  0  0  0  0  0  0  0  0  0
  -10.3897    0.8572    3.9448 C   0  0  0  0  0  0  0  0  0  0  0  0
   -9.4272   -0.3169    4.1442 C   0  0  0  0  0  0  0  0  0  0  0  0
  -11.7319    0.4354    3.3889 C   0  0  0  0  0  0  0  0  0  0  0  0
  -12.7611    0.6363    4.0880 O   0  0  0  0  0  0  0  0  0  0  0  0
  -11.8956   -0.0906    2.0611 N   0  0  0  0  0  0  0  0  0  0  0  0
  -11.0463   -1.1047    1.5081 C   0  0  0  0  0  0  0  0  0  0  0  0
  -10.1795   -0.8016    0.4318 C   0  0  0  0  0  0  0  0  0  0  0  0
  -10.1220    0.5666   -0.1916 C   0  0  0  0  0  0  0  0  0  0  0  0
   -9.3207   -1.7943   -0.0624 C   0  0  0  0  0  0  0  0  0  0  0  0
   -9.3450   -3.0822    0.4706 C   0  0  0  0  0  0  0  0  0  0  0  0
  -10.2410   -3.4023    1.4893 C   0  0  0  0  0  0  0  0  0  0  0  0
  -11.1164   -2.4309    1.9979 C   0  0  0  0  0  0  0  0  0  0  0  0
  -12.1087   -2.8179    3.0622 C   0  0  0  0  0  0  0  0  0  0  0  0
   -8.9132    3.7828    4.9853 N   0  0  0  0  0  0  0  0  0  0  0  0
  -10.1079    4.5221    4.9936 N   0  0  0  0  0  0  0  0  0  0  0  0
  1  3  4  0
  1 14  4  0
  1  2  1  0
  3  4  4  0
  4  5  4  0
  5  6  4  0
  5 22  1  0
  6  7  1  0
  6 14  4  0
  7  8  1  0
  8  9  4  0
  8 12  4  0
  9 10  4  0
 10 11  4  0
 11 12  4  0
 12 13  1  0
 13 14  1  0
 13 15  1  6
 15 16  4  0
 15 20  4  0
 16 17  4  0
 17 18  4  0
 17 21  1  0
 18 19  4  0
 19 20  4  0
 23 24  4  0
 24 25  4  0
 25 26  1  0
 26 27  1  0
 27 28  1  0
 27 29  1  0
 29 30  2  0
 29 31  1  0
 31 32  1  0
 32 33  4  0
 33 34  1  0
 33 35  4  0
 35 36  4  0
 36 37  4  0
 37 38  4  0
 38 39  1  0
 25 40  4  0
 40 41  1  0
 38 32  4  0
  2 23  4  0
  2 40  4  0
M  END
$$$$

     RDKit          3D

 28 32  0  0  0  0  0  0  0  0999 V2000
   -7.6410    4.9930    6.8080 C   0  0  0  0  0  0  0  0  0  1  0  0
   -7.7310    4.0530    5.7140 C   0  0  0  0  0  0  0  0  0  2  0  0
   -6.4520    5.6300    6.8680 N   0  0  0  0  0  0  0  0  0  0  0  0
   -6.2260    6.5240    7.8670 N   0  0  0  0  0  0  0  0  0  0  0  0
   -7.1930    6.7500    8.7820 C   0  0  0  0  0  0  0  0  0  0  0  0
   -8.4240    6.1170    8.7580 C   0  0  0  0  0  0  0  0  0  0  0  0
   -9.3950    6.3570    9.7450 N   0  0  0  0  0  0  0  0  0  0  0  0
  -10.5620    5.6840    9.7600 C   0  0  0  0  0  0  0  0  0  0  0  0
  -11.5770    5.6820   10.5960 N   0  0  0  0  0  0  0  0  0  0  0  0
  -12.4690    4.7490   10.1080 N   0  0  0  0  0  0  0  0  0  0  0  0
  -12.0160    4.1880    8.9920 N   0  0  0  0  0  0  0  0  0  0  0  0
  -10.8400    4.7900    8.7610 N   0  0  0  0  0  0  0  0  0  0  0  0
   -9.9950    4.4790    7.6090 C   0  0  0  0  0  0  0  0  0  0  0  0
   -8.6630    5.2070    7.7200 C   0  0  0  0  0  0  0  0  0  0  0  0
  -10.7490    4.8610    6.3730 C   0  0  0  0  0  0  0  0  0  0  0  0
  -11.0350    6.2020    6.1170 C   0  0  0  0  0  0  0  0  0  0  0  0
  -11.7370    6.5580    4.9650 C   0  0  0  0  0  0  0  0  0  0  0  0
  -12.1550    5.5730    4.0710 C   0  0  0  0  0  0  0  0  0  0  0  0
  -11.8700    4.2310    4.3270 C   0  0  0  0  0  0  0  0  0  0  0  0
  -11.1660    3.8760    5.4790 C   0  0  0  0  0  0  0  0  0  0  0  0
  -12.0160    7.8660    4.7150 O   0  0  0  0  0  0  0  0  0  0  0  0
   -6.8990    7.6510    9.7710 O   0  0  0  0  0  0  0  0  0  0  0  0
   -6.7462    3.3082    5.0992 C   0  0  0  0  0  0  0  0  0  0  0  0
   -7.2708    2.5435    4.1248 N   0  0  0  0  0  0  0  0  0  0  0  0
   -6.5291    1.6193    3.2784 C   0  0  0  0  0  0  0  0  0  0  0  0
   -8.5791    2.7278    4.0519 N   0  0  0  0  0  0  0  0  0  0  0  0
   -8.9129    3.6354    4.9914 C   0  0  0  0  0  0  0  0  0  0  0  0
  -10.3101    4.1349    5.1742 C   0  0  0  0  0  0  0  0  0  0  0  0
  1  3  4  0
  1 14  4  0
  1  2  1  0
  3  4  4  0
  4  5  4  0
  5  6  4  0
  5 22  1  0
  6  7  1  0
  6 14  4  0
  7  8  1  0
  8  9  4  0
  8 12  4  0
  9 10  4  0
 10 11  4  0
 11 12  4  0
 12 13  1  0
 13 14  1  0
 13 15  1  6
 15 16  4  0
 15 20  4  0
 16 17  4  0
 17 18  4  0
 17 21  1  0
 18 19  4  0
 19 20  4  0
 23 24  4  0
 24 25  1  0
 24 26  4  0
 26 27  4  0
 27 28  1  0
  2 23  4  0
  2 27  4  0
M  END
$$$$

     RDKit          3D

 49 56  0  0  0  0  0  0  0  0999 V2000
   -7.6410    4.9930    6.8080 C   0  0  0  0  0  0  0  0  0  1  0  0
   -7.7310    4.0530    5.7140 C   0  0  0  0  0  0  0  0  0  2  0  0
   -6.4520    5.6300    6.8680 N   0  0  0  0  0  0  0  0  0  0  0  0
   -6.2260    6.5240    7.8670 N   0  0  0  0  0  0  0  0  0  0  0  0
   -7.1930    6.7500    8.7820 C   0  0  0  0  0  0  0  0  0  0  0  0
   -8.4240    6.1170    8.7580 C   0  0  0  0  0  0  0  0  0  0  0  0
   -9.3950    6.3570    9.7450 N   0  0  0  0  0  0  0  0  0  0  0  0
  -10.5620    5.6840    9.7600 C   0  0  0  0  0  0  0  0  0  0  0  0
  -11.5770    5.6820   10.5960 N   0  0  0  0  0  0  0  0  0  0  0  0
  -12.4690    4.7490   10.1080 N   0  0  0  0  0  0  0  0  0  0  0  0
  -12.0160    4.1880    8.9920 N   0  0  0  0  0  0  0  0  0  0  0  0
  -10.8400    4.7900    8.7610 N   0  0  0  0  0  0  0  0  0  0  0  0
   -9.9950    4.4790    7.6090 C   0  0  0  0  0  0  0  0  0  0  0  0
   -8.6630    5.2070    7.7200 C   0  0  0  0  0  0  0  0  0  0  0  0
  -10.7490    4.8610    6.3730 C   0  0  0  0  0  0  0  0  0  0  0  0
  -11.0350    6.2020    6.1170 C   0  0  0  0  0  0  0  0  0  0  0  0
  -11.7370    6.5580    4.9650 C   0  0  0  0  0  0  0  0  0  0  0  0
  -12.1550    5.5730    4.0710 C   0  0  0  0  0  0  0  0  0  0  0  0
  -11.8700    4.2310    4.3270 C   0  0  0  0  0  0  0  0  0  0  0  0
  -11.1660    3.8760    5.4790 C   0  0  0  0  0  0  0  0  0  0  0  0
  -12.0160    7.8660    4.7150 O   0  0  0  0  0  0  0  0  0  0  0  0
   -6.8990    7.6510    9.7710 O   0  0  0  0  0  0  0  0  0  0  0  0
   -6.9949    2.8435    5.7201 C   0  0  0  0  0  0  0  0  0  0  0  0
   -7.1556    1.8489    4.7576 C   0  0  0  0  0  0  0  0  0  0  0  0
   -8.1006    2.0023    3.7447 C   0  0  0  0  0  0  0  0  0  0  0  0
   -8.8880    3.1528    3.6889 C   0  0  0  0  0  0  0  0  0  0  0  0
   -8.7463    4.1713    4.6514 C   0  0  0  0  0  0  0  0  0  0  0  0
   -9.5622    5.4072    4.5052 C   0  0  0  0  0  0  0  0  0  0  0  0
   -9.1335    6.5090    4.9419 O   0  0  0  0  0  0  0  0  0  0  0  0
  -10.8414    5.3546    3.8557 N   0  0  0  0  0  0  0  0  0  0  0  0
  -11.3416    6.3854    2.9883 C   0  0  0  0  0  0  0  0  0  0  0  0
  -12.7169    6.4433    2.7096 C   0  0  0  0  0  0  0  0  0  0  0  0
  -13.2170    7.3644    1.7834 C   0  0  0  0  0  0  0  0  0  0  0  0
  -12.3445    8.2267    1.1009 C   0  0  0  0  0  0  0  0  0  0  0  0
  -12.8651    9.1560    0.0783 C   0  0  0  0  0  0  0  0  0  0  0  0
  -13.9370    9.7817    0.3081 O   0  0  0  0  0  0  0  0  0  0  0  0
  -12.1872    9.3436   -1.1835 N   0  0  0  0  0  0  0  0  0  0  0  0
  -11.6099    8.1919   -1.8861 C   0  0  0  0  0  0  0  0  0  0  0  0
  -12.7008    7.4062   -2.6212 C   0  0  0  0  0  0  0  0  0  0  0  0
  -13.7349    8.3101   -3.3119 C   0  0  0  0  0  0  0  0  0  0  0  0
  -13.0830    9.4629   -4.0907 C   0  0  0  0  0  0  0  0  0  0  0  0
  -12.7531   10.6778   -3.2366 C   0  0  0  0  0  0  0  0  0  0  0  0
  -12.8617   11.9436   -3.8430 C   0  0  0  0  0  0  0  0  0  0  0  0
  -12.5580   13.1064   -3.1346 C   0  0  0  0  0  0  0  0  0  0  0  0
  -12.1387   13.0283   -1.8102 C   0  0  0  0  0  0  0  0  0  0  0  0
  -12.0245   11.7863   -1.1855 C   0  0  0  0  0  0  0  0  0  0  0  0
  -12.3232   10.6012   -1.8788 C   0  0  0  0  0  0  0  0  0  0  0  0
  -10.9731    8.1912    1.3964 C   0  0  0  0  0  0  0  0  0  0  0  0
  -10.4732    7.2724    2.3242 C   0  0  0  0  0  0  0  0  0  0  0  0
  1  3  4  0
  1 14  4  0
  1  2  1  0
  3  4  4  0
  4  5  4  0
  5  6  4  0
  5 22  1  0
  6  7  1  0
  6 14  4  0
  7  8  1  0
  8  9  4  0
  8 12  4  0
  9 10  4  0
 10 11  4  0
 11 12  4  0
 12 13  1  0
 13 14  1  0
 13 15  1  6
 15 16  4  0
 15 20  4  0
 16 17  4  0
 17 18  4  0
 17 21  1  0
 18 19  4  0
 19 20  4  0
 23 24  4  0
 24 25  4  0
 25 26  4  0
 26 27  4  0
 27 28  1  0
 28 29  2  0
 28 30  1  0
 30 31  1  0
 31 32  4  0
 32 33  4  0
 33 34  4  0
 34 35  1  0
 35 36  2  0
 35 37  1  0
 37 38  1  0
 38 39  1  0
 39 40  1  0
 40 41  1  0
 41 42  1  0
 42 43  4  0
 43 44  4  0
 44 45  4  0
 45 46  4  0
 46 47  4  0
 34 48  4  0
 48 49  4  0
 49 31  4  0
 47 37  1  0
 47 42  4  0
  2 23  4  0
  2 27  4  0
M  END
$$$$

     RDKit          3D

 41 46  0  0  0  0  0  0  0  0999 V2000
   -7.6410    4.9930    6.8080 C   0  0  0  0  0  0  0  0  0  1  0  0
   -7.7310    4.0530    5.7140 C   0  0  0  0  0  0  0  0  0  2  0  0
   -6.4520    5.6300    6.8680 N   0  0  0  0  0  0  0  0  0  0  0  0
   -6.2260    6.5240    7.8670 N   0  0  0  0  0  0  0  0  0  0  0  0
   -7.1930    6.7500    8.7820 C   0  0  0  0  0  0  0  0  0  0  0  0
   -8.4240    6.1170    8.7580 C   0  0  0  0  0  0  0  0  0  0  0  0
   -9.3950    6.3570    9.7450 N   0  0  0  0  0  0  0  0  0  0  0  0
  -10.5620    5.6840    9.7600 C   0  0  0  0  0  0  0  0  0  0  0  0
  -11.5770    5.6820   10.5960 N   0  0  0  0  0  0  0  0  0  0  0  0
  -12.4690    4.7490   10.1080 N   0  0  0  0  0  0  0  0  0  0  0  0
  -12.0160    4.1880    8.9920 N   0  0  0  0  0  0  0  0  0  0  0  0
  -10.8400    4.7900    8.7610 N   0  0  0  0  0  0  0  0  0  0  0  0
   -9.9950    4.4790    7.6090 C   0  0  0  0  0  0  0  0  0  0  0  0
   -8.6630    5.2070    7.7200 C   0  0  0  0  0  0  0  0  0  0  0  0
  -10.7490    4.8610    6.3730 C   0  0  0  0  0  0  0  0  0  0  0  0
  -11.0350    6.2020    6.1170 C   0  0  0  0  0  0  0  0  0  0  0  0
  -11.7370    6.5580    4.9650 C   0  0  0  0  0  0  0  0  0  0  0  0
  -12.1550    5.5730    4.0710 C   0  0  0  0  0  0  0  0  0  0  0  0
  -11.8700    4.2310    4.3270 C   0  0  0  0  0  0  0  0  0  0  0  0
  -11.1660    3.8760    5.4790 C   0  0  0  0  0  0  0  0  0  0  0  0
  -12.0160    7.8660    4.7150 O   0  0  0  0  0  0  0  0  0  0  0  0
   -6.8990    7.6510    9.7710 O   0  0  0  0  0  0  0  0  0  0  0  0
   -6.9023    3.0127    5.4669 N   0  0  0  0  0  0  0  0  0  0  0  0
   -7.3330    2.3399    4.4107 N   0  0  0  0  0  0  0  0  0  0  0  0
   -8.4621    2.9436    3.9968 C   0  0  0  0  0  0  0  0  0  0  0  0
   -9.3891    2.4114    2.5560 S   0  0  0  0  0  0  0  0  0  0  0  0
   -8.1698    3.0669    1.3646 C   0  0  0  0  0  0  0  0  0  0  0  0
   -8.7746    3.1143   -0.0140 C   0  0  0  0  0  0  0  0  0  0  0  0
   -9.1349    4.3557   -0.5678 C   0  0  0  0  0  0  0  0  0  0  0  0
   -9.7034    4.4259   -1.8419 C   0  0  0  0  0  0  0  0  0  0  0  0
   -9.9166    3.2594   -2.5797 C   0  0  0  0  0  0  0  0  0  0  0  0
  -10.6304    3.3509   -4.1795 Cl  0  0  0  0  0  0  0  0  0  0  0  0
   -9.5587    2.0194   -2.0432 C   0  0  0  0  0  0  0  0  0  0  0  0
   -8.9885    1.9378   -0.7669 C   0  0  0  0  0  0  0  0  0  0  0  0
   -8.5418    0.3490   -0.1527 Cl  0  0  0  0  0  0  0  0  0  0  0  0
   -8.7841    3.9941    4.7802 N   0  0  0  0  0  0  0  0  0  0  0  0
   -9.8987    4.9359    4.6050 C   0  0  0  0  0  0  0  0  0  0  0  0
   -9.5659    6.0227    3.5771 C   0  0  0  0  0  0  0  0  0  0  0  0
   -8.3957    6.8552    4.0007 C   0  0  0  0  0  0  0  0  0  0  0  0
   -8.4800    7.5998    5.0127 O   0  0  0  0  0  0  0  0  0  0  0  0
   -7.2145    6.8174    3.2707 O   0  0  0  0  0  0  0  0  0  0  0  0
  1  3  4  0
  1 14  4  0
  1  2  1  0
  3  4  4  0
  4  5  4  0
  5  6  4  0
  5 22  1  0
  6  7  1  0
  6 14  4  0
  7  8  1  0
  8  9  4  0
  8 12  4  0
  9 10  4  0
 10 11  4  0
 11 12  4  0
 12 13  1  0
 13 14  1  0
 13 15  1  6
 15 16  4  0
 15 20  4  0
 16 17  4  0
 17 18  4  0
 17 21  1  0
 18 19  4  0
 19 20  4  0
 23 24  4  0
 24 25  4  0
 25 26  1  0
 26 27  1  0
 27 28  1  0
 28 29  4  0
 29 30  4  0
 30 31  4  0
 31 32  1  0
 31 33  4  0
 33 34  4  0
 34 35  1  0
 25 36  4  0
 36 37  1  0
 37 38  1  0
 38 39  1  0
 39 40  2  0
 39 41  1  0
 34 28  4  0
  2 23  4  0
  2 36  4  0
M  CHG  1  41  -1
M  END
$$$$

     RDKit          3D

 42 47  0  0  0  0  0  0  0  0999 V2000
   -7.6410    4.9930    6.8080 C   0  0  0  0  0  0  0  0  0  1  0  0
   -7.7310    4.0530    5.7140 C   0  0  0  0  0  0  0  0  0  2  0  0
   -6.4520    5.6300    6.8680 N   0  0  0  0  0  0  0  0  0  0  0  0
   -6.2260    6.5240    7.8670 N   0  0  0  0  0  0  0  0  0  0  0  0
   -7.1930    6.7500    8.7820 C   0  0  0  0  0  0  0  0  0  0  0  0
   -8.4240    6.1170    8.7580 C   0  0  0  0  0  0  0  0  0  0  0  0
   -9.3950    6.3570    9.7450 N   0  0  0  0  0  0  0  0  0  0  0  0
  -10.5620    5.6840    9.7600 C   0  0  0  0  0  0  0  0  0  0  0  0
  -11.5770    5.6820   10.5960 N   0  0  0  0  0  0  0  0  0  0  0  0
  -12.4690    4.7490   10.1080 N   0  0  0  0  0  0  0  0  0  0  0  0
  -12.0160    4.1880    8.9920 N   0  0  0  0  0  0  0  0  0  0  0  0
  -10.8400    4.7900    8.7610 N   0  0  0  0  0  0  0  0  0  0  0  0
   -9.9950    4.4790    7.6090 C   0  0  0  0  0  0  0  0  0  0  0  0
   -8.6630    5.2070    7.7200 C   0  0  0  0  0  0  0  0  0  0  0  0
  -10.7490    4.8610    6.3730 C   0  0  0  0  0  0  0  0  0  0  0  0
  -11.0350    6.2020    6.1170 C   0  0  0  0  0  0  0  0  0  0  0  0
  -11.7370    6.5580    4.9650 C   0  0  0  0  0  0  0  0  0  0  0  0
  -12.1550    5.5730    4.0710 C   0  0  0  0  0  0  0  0  0  0  0  0
  -11.8700    4.2310    4.3270 C   0  0  0  0  0  0  0  0  0  0  0  0
  -11.1660    3.8760    5.4790 C   0  0  0  0  0  0  0  0  0  0  0  0
  -12.0160    7.8660    4.7150 O   0  0  0  0  0  0  0  0  0  0  0  0
   -6.8990    7.6510    9.7710 O   0  0  0  0  0  0  0  0  0  0  0  0
   -6.8386    3.0390    5.5601 N   0  0  0  0  0  0  0  0  0  0  0  0
   -6.8969    2.0627    4.6204 C   0  0  0  0  0  0  0  0  0  0  0  0
   -5.8454    1.0915    4.5719 N   0  0  0  0  0  0  0  0  0  0  0  0
   -7.9882    2.0153    3.7347 C   0  0  0  0  0  0  0  0  0  0  0  0
   -8.0916    0.9501    2.7596 C   0  0  0  0  0  0  0  0  0  0  0  0
   -8.1759    0.0995    1.9794 N   0  0  0  0  0  0  0  0  0  0  0  0
   -8.9883    3.0090    3.8192 C   0  0  0  0  0  0  0  0  0  1  0  0
  -10.1555    2.9607    2.9039 C   0  0  0  0  0  0  0  0  0  2  0  0
  -11.4116    2.5503    3.3823 C   0  0  0  0  0  0  0  0  0  0  0  0
  -11.5658    2.1848    4.6807 F   0  0  0  0  0  0  0  0  0  0  0  0
  -12.5117    2.5085    2.5187 C   0  0  0  0  0  0  0  0  0  0  0  0
  -13.7224    2.1110    2.9831 F   0  0  0  0  0  0  0  0  0  0  0  0
  -12.3645    2.8747    1.1770 C   0  0  0  0  0  0  0  0  0  0  0  0
  -13.4326    2.8332    0.3421 F   0  0  0  0  0  0  0  0  0  0  0  0
  -11.1167    3.2836    0.6955 C   0  0  0  0  0  0  0  0  0  0  0  0
  -10.9767    3.6398   -0.6056 F   0  0  0  0  0  0  0  0  0  0  0  0
  -10.0132    3.3276    1.5545 C   0  0  0  0  0  0  0  0  0  0  0  0
   -8.8094    3.7351    1.0772 F   0  0  0  0  0  0  0  0  0  0  0  0
   -8.8732    4.0425    4.7820 C   0  0  0  0  0  0  0  0  0  0  0  0
   -9.8922    5.1619    4.8325 C   0  0  0  0  0  0  0  0  0  0  0  0
  1  3  4  0
  1 14  4  0
  1  2  1  0
  3  4  4  0
  4  5  4  0
  5  6  4  0
  5 22  1  0
  6  7  1  0
  6 14  4  0
  7  8  1  0
  8  9  4  0
  8 12  4  0
  9 10  4  0
 10 11  4  0
 11 12  4  0
 12 13  1  0
 13 14  1  0
 13 15  1  6
 15 16  4  0
 15 20  4  0
 16 17  4  0
 17 18  4  0
 17 21  1  0
 18 19  4  0
 19 20  4  0
 23 24  4  0
 24 25  1  0
 24 26  4  0
 26 27  1  0
 27 28  3  0
 26 29  4  0
 29 30  1  0
 30 31  4  0
 31 32  1  0
 31 33  4  0
 33 34  1  0
 33 35  4  0
 35 36  1  0
 35 37  4  0
 37 38  1  0
 37 39  4  0
 39 40  1  0
 29 41  4  0
 41 42  1  0
 39 30  4  0
  2 23  4  0
  2 41  4  0
M  END
$$$$

     RDKit          3D

 42 47  0  0  0  0  0  0  0  0999 V2000
   -7.6410    4.9930    6.8080 C   0  0  0  0  0  0  0  0  0  1  0  0
   -7.7310    4.0530    5.7140 C   0  0  0  0  0  0  0  0  0  2  0  0
   -6.4520    5.6300    6.8680 N   0  0  0  0  0  0  0  0  0  0  0  0
   -6.2260    6.5240    7.8670 N   0  0  0  0  0  0  0  0  0  0  0  0
   -7.1930    6.7500    8.7820 C   0  0  0  0  0  0  0  0  0  0  0  0
   -8.4240    6.1170    8.7580 C   0  0  0  0  0  0  0  0  0  0  0  0
   -9.3950    6.3570    9.7450 N   0  0  0  0  0  0  0  0  0  0  0  0
  -10.5620    5.6840    9.7600 C   0  0  0  0  0  0  0  0  0  0  0  0
  -11.5770    5.6820   10.5960 N   0  0  0  0  0  0  0  0  0  0  0  0
  -12.4690    4.7490   10.1080 N   0  0  0  0  0  0  0  0  0  0  0  0
  -12.0160    4.1880    8.9920 N   0  0  0  0  0  0  0  0  0  0  0  0
  -10.8400    4.7900    8.7610 N   0  0  0  0  0  0  0  0  0  0  0  0
   -9.9950    4.4790    7.6090 C   0  0  0  0  0  0  0  0  0  0  0  0
   -8.6630    5.2070    7.7200 C   0  0  0  0  0  0  0  0  0  0  0  0
  -10.7490    4.8610    6.3730 C   0  0  0  0  0  0  0  0  0  0  0  0
  -11.0350    6.2020    6.1170 C   0  0  0  0  0  0  0  0  0  0  0  0
  -11.7370    6.5580    4.9650 C   0  0  0  0  0  0  0  0  0  0  0  0
  -12.1550    5.5730    4.0710 C   0  0  0  0  0  0  0  0  0  0  0  0
  -11.8700    4.2310    4.3270 C   0  0  0  0  0  0  0  0  0  0  0  0
  -11.1660    3.8760    5.4790 C   0  0  0  0  0  0  0  0  0  0  0  0
  -12.0160    7.8660    4.7150 O   0  0  0  0  0  0  0  0  0  0  0  0
   -6.8990    7.6510    9.7710 O   0  0  0  0  0  0  0  0  0  0  0  0
   -6.8276    3.0512    5.5506 N   0  0  0  0  0  0  0  0  0  0  0  0
   -6.8809    2.0760    4.6095 C   0  0  0  0  0  0  0  0  0  0  0  0
   -5.8181    1.1196    4.5496 N   0  0  0  0  0  0  0  0  0  0  0  0
   -7.9759    2.0188    3.7306 C   0  0  0  0  0  0  0  0  0  0  0  0
   -8.0703    0.9596    2.7483 C   0  0  0  0  0  0  0  0  0  0  0  0
   -8.1439    0.1116    1.9627 N   0  0  0  0  0  0  0  0  0  0  0  0
   -8.9808    3.0064    3.8178 C   0  0  0  0  0  0  0  0  0  1  0  0
  -10.1341    2.9616    2.8875 C   0  0  0  0  0  0  0  0  0  2  0  0
  -10.0246    3.5173    1.6021 C   0  0  0  0  0  0  0  0  0  0  0  0
   -8.8636    4.0964    1.2016 F   0  0  0  0  0  0  0  0  0  0  0  0
  -11.1124    3.4724    0.7238 C   0  0  0  0  0  0  0  0  0  0  0  0
  -11.0035    4.0067   -0.5179 F   0  0  0  0  0  0  0  0  0  0  0  0
  -12.3098    2.8712    1.1220 C   0  0  0  0  0  0  0  0  0  0  0  0
  -13.3605    2.8255    0.2667 F   0  0  0  0  0  0  0  0  0  0  0  0
  -12.4213    2.3082    2.3984 C   0  0  0  0  0  0  0  0  0  0  0  0
  -13.5787    1.7075    2.7756 F   0  0  0  0  0  0  0  0  0  0  0  0
  -11.3372    2.3526    3.2817 C   0  0  0  0  0  0  0  0  0  0  0  0
  -11.4524    1.7973    4.5157 F   0  0  0  0  0  0  0  0  0  0  0  0
   -8.8760    4.0349    4.7861 C   0  0  0  0  0  0  0  0  0  0  0  0
   -9.9083    5.1428    4.8457 C   0  0  0  0  0  0  0  0  0  0  0  0
  1  3  4  0
  1 14  4  0
  1  2  1  0
  3  4  4  0
  4  5  4  0
  5  6  4  0
  5 22  1  0
  6  7  1  0
  6 14  4  0
  7  8  1  0
  8  9  4  0
  8 12  4  0
  9 10  4  0
 10 11  4  0
 11 12  4  0
 12 13  1  0
 13 14  1  0
 13 15  1  6
 15 16  4  0
 15 20  4  0
 16 17  4  0
 17 18  4  0
 17 21  1  0
 18 19  4  0
 19 20  4  0
 23 24  4  0
 24 25  1  0
 24 26  4  0
 26 27  1  0
 27 28  3  0
 26 29  4  0
 29 30  1  0
 30 31  4  0
 31 32  1  0
 31 33  4  0
 33 34  1  0
 33 35  4  0
 35 36  1  0
 35 37  4  0
 37 38  1  0
 37 39  4  0
 39 40  1  0
 29 41  4  0
 41 42  1  0
 39 30  4  0
  2 23  4  0
  2 41  4  0
M  END
$$$$

     RDKit          3D

 44 50  0  0  0  0  0  0  0  0999 V2000
   -7.6410    4.9930    6.8080 C   0  0  0  0  0  0  0  0  0  1  0  0
   -7.7310    4.0530    5.7140 C   0  0  0  0  0  0  0  0  0  2  0  0
   -6.4520    5.6300    6.8680 N   0  0  0  0  0  0  0  0  0  0  0  0
   -6.2260    6.5240    7.8670 N   0  0  0  0  0  0  0  0  0  0  0  0
   -7.1930    6.7500    8.7820 C   0  0  0  0  0  0  0  0  0  0  0  0
   -8.4240    6.1170    8.7580 C   0  0  0  0  0  0  0  0  0  0  0  0
   -9.3950    6.3570    9.7450 N   0  0  0  0  0  0  0  0  0  0  0  0
  -10.5620    5.6840    9.7600 C   0  0  0  0  0  0  0  0  0  0  0  0
  -11.5770    5.6820   10.5960 N   0  0  0  0  0  0  0  0  0  0  0  0
  -12.4690    4.7490   10.1080 N   0  0  0  0  0  0  0  0  0  0  0  0
  -12.0160    4.1880    8.9920 N   0  0  0  0  0  0  0  0  0  0  0  0
  -10.8400    4.7900    8.7610 N   0  0  0  0  0  0  0  0  0  0  0  0
   -9.9950    4.4790    7.6090 C   0  0  0  0  0  0  0  0  0  0  0  0
   -8.6630    5.2070    7.7200 C   0  0  0  0  0  0  0  0  0  0  0  0
  -10.7490    4.8610    6.3730 C   0  0  0  0  0  0  0  0  0  0  0  0
  -11.0350    6.2020    6.1170 C   0  0  0  0  0  0  0  0  0  0  0  0
  -11.7370    6.5580    4.9650 C   0  0  0  0  0  0  0  0  0  0  0  0
  -12.1550    5.5730    4.0710 C   0  0  0  0  0  0  0  0  0  0  0  0
  -11.8700    4.2310    4.3270 C   0  0  0  0  0  0  0  0  0  0  0  0
  -11.1660    3.8760    5.4790 C   0  0  0  0  0  0  0  0  0  0  0  0
  -12.0160    7.8660    4.7150 O   0  0  0  0  0  0  0  0  0  0  0  0
   -6.8990    7.6510    9.7710 O   0  0  0  0  0  0  0  0  0  0  0  0
   -6.8947    3.0301    5.4274 N   0  0  0  0  0  0  0  0  0  0  0  0
   -7.3097    2.3941    4.3397 N   0  0  0  0  0  0  0  0  0  0  0  0
   -6.6058    1.2555    3.7432 C   0  0  0  0  0  0  0  0  0  0  0  0
   -6.7284    0.0009    4.6172 C   0  0  0  0  0  0  0  0  0  0  0  0
   -8.1364   -0.3658    4.8616 C   0  0  0  0  0  0  0  0  0  0  0  0
   -9.2379   -0.6612    5.0631 N   0  0  0  0  0  0  0  0  0  0  0  0
   -8.4492    2.9556    3.8797 C   0  0  0  0  0  0  0  0  0  0  0  0
   -8.7749    4.0046    4.7132 C   0  0  0  0  0  0  0  0  0  0  0  0
   -9.7718    5.0765    4.4812 C   0  0  0  0  0  0  0  0  0  0  0  0
  -10.5260    5.1400    3.3752 C   0  0  0  0  0  0  0  0  0  0  0  0
  -11.2566    6.3654    3.0218 C   0  0  0  0  0  0  0  0  0  0  0  0
  -11.3094    7.4637    3.8156 N   0  0  0  0  0  0  0  0  0  0  0  0
  -11.8891    8.5073    3.1726 C   0  0  0  0  0  0  0  0  0  0  0  0
  -12.0114    9.7886    3.7065 C   0  0  0  0  0  0  0  0  0  0  0  0
  -12.4853   10.8226    2.8842 C   0  0  0  0  0  0  0  0  0  0  0  0
  -12.8579   10.5720    1.5466 C   0  0  0  0  0  0  0  0  0  0  0  0
  -13.2547   11.6639    0.6939 N   0  0  0  0  0  0  0  0  0  0  0  0
  -14.0383   11.4560   -0.2536 O   0  0  0  0  0  0  0  0  0  0  0  0
  -12.6269   12.8902    0.7913 O   0  0  0  0  0  0  0  0  0  0  0  0
  -12.7536    9.2600    1.0334 C   0  0  0  0  0  0  0  0  0  0  0  0
  -12.2753    8.2540    1.8708 C   0  0  0  0  0  0  0  0  0  0  0  0
  -11.9147    6.6544    1.4916 S   0  0  0  0  0  0  0  0  0  0  0  0
  1  3  4  0
  1 14  4  0
  1  2  1  0
  3  4  4  0
  4  5  4  0
  5  6  4  0
  5 22  1  0
  6  7  1  0
  6 14  4  0
  7  8  1  0
  8  9  4  0
  8 12  4  0
  9 10  4  0
 10 11  4  0
 11 12  4  0
 12 13  1  0
 13 14  1  0
 13 15  1  6
 15 16  4  0
 15 20  4  0
 16 17  4  0
 17 18  4  0
 17 21  1  0
 18 19  4  0
 19 20  4  0
 23 24  4  0
 24 25  1  0
 25 26  1  0
 26 27  1  0
 27 28  3  0
 24 29  4  0
 29 30  4  0
 30 31  1  0
 31 32  2  3
 32 33  1  0
 33 34  4  0
 34 35  4  0
 35 36  4  0
 36 37  4  0
 37 38  4  0
 38 39  1  0
 39 40  2  0
 39 41  1  0
 38 42  4  0
 42 43  4  0
 43 44  4  0
 44 33  4  0
 43 35  4  0
  2 23  4  0
  2 30  4  0
M  CHG  2  39   1  41  -1
M  END
$$$$

     RDKit          3D

 34 39  0  0  0  0  0  0  0  0999 V2000
   -7.6410    4.9930    6.8080 C   0  0  0  0  0  0  0  0  0  1  0  0
   -7.7310    4.0530    5.7140 C   0  0  0  0  0  0  0  0  0  2  0  0
   -6.4520    5.6300    6.8680 N   0  0  0  0  0  0  0  0  0  0  0  0
   -6.2260    6.5240    7.8670 N   0  0  0  0  0  0  0  0  0  0  0  0
   -7.1930    6.7500    8.7820 C   0  0  0  0  0  0  0  0  0  0  0  0
   -8.4240    6.1170    8.7580 C   0  0  0  0  0  0  0  0  0  0  0  0
   -9.3950    6.3570    9.7450 N   0  0  0  0  0  0  0  0  0  0  0  0
  -10.5620    5.6840    9.7600 C   0  0  0  0  0  0  0  0  0  0  0  0
  -11.5770    5.6820   10.5960 N   0  0  0  0  0  0  0  0  0  0  0  0
  -12.4690    4.7490   10.1080 N   0  0  0  0  0  0  0  0  0  0  0  0
  -12.0160    4.1880    8.9920 N   0  0  0  0  0  0  0  0  0  0  0  0
  -10.8400    4.7900    8.7610 N   0  0  0  0  0  0  0  0  0  0  0  0
   -9.9950    4.4790    7.6090 C   0  0  0  0  0  0  0  0  0  0  0  0
   -8.6630    5.2070    7.7200 C   0  0  0  0  0  0  0  0  0  0  0  0
  -10.7490    4.8610    6.3730 C   0  0  0  0  0  0  0  0  0  0  0  0
  -11.0350    6.2020    6.1170 C   0  0  0  0  0  0  0  0  0  0  0  0
  -11.7370    6.5580    4.9650 C   0  0  0  0  0  0  0  0  0  0  0  0
  -12.1550    5.5730    4.0710 C   0  0  0  0  0  0  0  0  0  0  0  0
  -11.8700    4.2310    4.3270 C   0  0  0  0  0  0  0  0  0  0  0  0
  -11.1660    3.8760    5.4790 C   0  0  0  0  0  0  0  0  0  0  0  0
  -12.0160    7.8660    4.7150 O   0  0  0  0  0  0  0  0  0  0  0  0
   -6.8990    7.6510    9.7710 O   0  0  0  0  0  0  0  0  0  0  0  0
   -6.7919    3.1946    5.2662 N   0  0  0  0  0  0  0  0  0  0  0  0
   -7.2835    2.4466    4.2862 N   0  0  0  0  0  0  0  0  0  0  0  0
   -8.5684    2.8126    4.1204 C   0  0  0  0  0  0  0  0  0  0  0  0
   -9.6442    2.1273    2.8607 S   0  0  0  0  0  0  0  0  0  0  0  0
   -9.1648    3.3665    1.6151 C   0  0  0  0  0  0  0  0  0  0  0  0
   -9.9283    3.0969    0.3147 C   0  0  0  0  0  0  0  0  0  0  0  0
  -10.1489    4.3260   -0.5640 C   0  0  0  0  0  0  0  0  0  0  0  0
  -11.3263    3.6909    0.1636 C   0  0  0  0  0  0  0  0  0  0  0  0
  -12.4459    2.7883   -0.8895 Cl  0  0  0  0  0  0  0  0  0  0  0  0
  -12.0230    4.6904    1.4730 Cl  0  0  0  0  0  0  0  0  0  0  0  0
   -8.9119    3.7827    4.9840 N   0  0  0  0  0  0  0  0  0  0  0  0
  -10.1083    4.5190    4.9954 N   0  0  0  0  0  0  0  0  0  0  0  0
  1  3  4  0
  1 14  4  0
  1  2  1  0
  3  4  4  0
  4  5  4  0
  5  6  4  0
  5 22  1  0
  6  7  1  0
  6 14  4  0
  7  8  1  0
  8  9  4  0
  8 12  4  0
  9 10  4  0
 10 11  4  0
 11 12  4  0
 12 13  1  0
 13 14  1  0
 13 15  1  6
 15 16  4  0
 15 20  4  0
 16 17  4  0
 17 18  4  0
 17 21  1  0
 18 19  4  0
 19 20  4  0
 23 24  4  0
 24 25  4  0
 25 26  1  0
 26 27  1  0
 27 28  1  0
 28 29  1  0
 29 30  1  0
 30 31  1  0
 30 32  1  0
 25 33  4  0
 33 34  1  0
 30 28  1  0
  2 23  4  0
  2 33  4  0
M  END
$$$$

     RDKit          3D

 34 39  0  0  0  0  0  0  0  0999 V2000
   -7.6410    4.9930    6.8080 C   0  0  0  0  0  0  0  0  0  1  0  0
   -7.7310    4.0530    5.7140 C   0  0  0  0  0  0  0  0  0  2  0  0
   -6.4520    5.6300    6.8680 N   0  0  0  0  0  0  0  0  0  0  0  0
   -6.2260    6.5240    7.8670 N   0  0  0  0  0  0  0  0  0  0  0  0
   -7.1930    6.7500    8.7820 C   0  0  0  0  0  0  0  0  0  0  0  0
   -8.4240    6.1170    8.7580 C   0  0  0  0  0  0  0  0  0  0  0  0
   -9.3950    6.3570    9.7450 N   0  0  0  0  0  0  0  0  0  0  0  0
  -10.5620    5.6840    9.7600 C   0  0  0  0  0  0  0  0  0  0  0  0
  -11.5770    5.6820   10.5960 N   0  0  0  0  0  0  0  0  0  0  0  0
  -12.4690    4.7490   10.1080 N   0  0  0  0  0  0  0  0  0  0  0  0
  -12.0160    4.1880    8.9920 N   0  0  0  0  0  0  0  0  0  0  0  0
  -10.8400    4.7900    8.7610 N   0  0  0  0  0  0  0  0  0  0  0  0
   -9.9950    4.4790    7.6090 C   0  0  0  0  0  0  0  0  0  0  0  0
   -8.6630    5.2070    7.7200 C   0  0  0  0  0  0  0  0  0  0  0  0
  -10.7490    4.8610    6.3730 C   0  0  0  0  0  0  0  0  0  0  0  0
  -11.0350    6.2020    6.1170 C   0  0  0  0  0  0  0  0  0  0  0  0
  -11.7370    6.5580    4.9650 C   0  0  0  0  0  0  0  0  0  0  0  0
  -12.1550    5.5730    4.0710 C   0  0  0  0  0  0  0  0  0  0  0  0
  -11.8700    4.2310    4.3270 C   0  0  0  0  0  0  0  0  0  0  0  0
  -11.1660    3.8760    5.4790 C   0  0  0  0  0  0  0  0  0  0  0  0
  -12.0160    7.8660    4.7150 O   0  0  0  0  0  0  0  0  0  0  0  0
   -6.8990    7.6510    9.7710 O   0  0  0  0  0  0  0  0  0  0  0  0
   -6.7944    3.1887    5.2720 N   0  0  0  0  0  0  0  0  0  0  0  0
   -7.2876    2.4372    4.2953 N   0  0  0  0  0  0  0  0  0  0  0  0
   -8.5709    2.8070    4.1261 C   0  0  0  0  0  0  0  0  0  0  0  0
   -9.6529    2.1072    2.8799 S   0  0  0  0  0  0  0  0  0  0  0  0
  -10.3068    0.8328    4.0036 C   0  0  0  0  0  0  0  0  0  0  0  0
  -11.3672    0.0085    3.2662 C   0  0  0  0  0  0  0  0  0  0  0  0
  -10.8725   -1.2993    2.6521 C   0  0  0  0  0  0  0  0  0  0  0  0
  -11.7668   -1.3280    3.8845 C   0  0  0  0  0  0  0  0  0  0  0  0
  -13.4370   -1.8670    3.5711 Cl  0  0  0  0  0  0  0  0  0  0  0  0
  -10.9642   -1.8957    5.3789 Cl  0  0  0  0  0  0  0  0  0  0  0  0
   -8.9111    3.7847    4.9821 N   0  0  0  0  0  0  0  0  0  0  0  0
  -10.1089    4.5184    4.9951 N   0  0  0  0  0  0  0  0  0  0  0  0
  1  3  4  0
  1 14  4  0
  1  2  1  0
  3  4  4  0
  4  5  4  0
  5  6  4  0
  5 22  1  0
  6  7  1  0
  6 14  4  0
  7  8  1  0
  8  9  4  0
  8 12  4  0
  9 10  4  0
 10 11  4  0
 11 12  4  0
 12 13  1  0
 13 14  1  0
 13 15  1  6
 15 16  4  0
 15 20  4  0
 16 17  4  0
 17 18  4  0
 17 21  1  0
 18 19  4  0
 19 20  4  0
 23 24  4  0
 24 25  4  0
 25 26  1  0
 26 27  1  0
 27 28  1  0
 28 29  1  0
 29 30  1  0
 30 31  1  0
 30 32  1  0
 25 33  4  0
 33 34  1  0
 30 28  1  0
  2 23  4  0
  2 33  4  0
M  END
$$$$

     RDKit          3D

 47 52  0  0  0  0  0  0  0  0999 V2000
   -7.6410    4.9930    6.8080 C   0  0  0  0  0  0  0  0  0  1  0  0
   -7.7310    4.0530    5.7140 C   0  0  0  0  0  0  0  0  0  2  0  0
   -6.4520    5.6300    6.8680 N   0  0  0  0  0  0  0  0  0  0  0  0
   -6.2260    6.5240    7.8670 N   0  0  0  0  0  0  0  0  0  0  0  0
   -7.1930    6.7500    8.7820 C   0  0  0  0  0  0  0  0  0  0  0  0
   -8.4240    6.1170    8.7580 C   0  0  0  0  0  0  0  0  0  0  0  0
   -9.3950    6.3570    9.7450 N   0  0  0  0  0  0  0  0  0  0  0  0
  -10.5620    5.6840    9.7600 C   0  0  0  0  0  0  0  0  0  0  0  0
  -11.5770    5.6820   10.5960 N   0  0  0  0  0  0  0  0  0  0  0  0
  -12.4690    4.7490   10.1080 N   0  0  0  0  0  0  0  0  0  0  0  0
  -12.0160    4.1880    8.9920 N   0  0  0  0  0  0  0  0  0  0  0  0
  -10.8400    4.7900    8.7610 N   0  0  0  0  0  0  0  0  0  0  0  0
   -9.9950    4.4790    7.6090 C   0  0  0  0  0  0  0  0  0  0  0  0
   -8.6630    5.2070    7.7200 C   0  0  0  0  0  0  0  0  0  0  0  0
  -10.7490    4.8610    6.3730 C   0  0  0  0  0  0  0  0  0  0  0  0
  -11.0350    6.2020    6.1170 C   0  0  0  0  0  0  0  0  0  0  0  0
  -11.7370    6.5580    4.9650 C   0  0  0  0  0  0  0  0  0  0  0  0
  -12.1550    5.5730    4.0710 C   0  0  0  0  0  0  0  0  0  0  0  0
  -11.8700    4.2310    4.3270 C   0  0  0  0  0  0  0  0  0  0  0  0
  -11.1660    3.8760    5.4790 C   0  0  0  0  0  0  0  0  0  0  0  0
  -12.0160    7.8660    4.7150 O   0  0  0  0  0  0  0  0  0  0  0  0
   -6.8990    7.6510    9.7710 O   0  0  0  0  0  0  0  0  0  0  0  0
   -6.9272    3.0230    5.3892 N   0  0  0  0  0  0  0  0  0  0  0  0
   -7.4409    2.3222    4.3884 N   0  0  0  0  0  0  0  0  0  0  0  0
   -8.6272    2.8855    4.0874 C   0  0  0  0  0  0  0  0  0  0  0  0
   -9.7091    2.2785    2.7907 S   0  0  0  0  0  0  0  0  0  0  0  0
   -8.9534    3.2940    1.4764 C   0  0  0  0  0  0  0  0  0  0  0  0
   -7.6057    2.7598    1.0998 C   0  0  0  0  0  0  0  0  0  0  0  0
   -6.5840    3.4796    1.2666 O   0  0  0  0  0  0  0  0  0  0  0  0
   -7.4826    1.4387    0.5521 N   0  0  0  0  0  0  0  0  0  0  0  0
   -6.2138    0.8997    0.0644 C   0  0  0  0  0  0  0  0  0  0  0  0
   -5.7601    1.6407   -1.1745 C   0  0  0  0  0  0  0  0  0  0  0  0
   -4.6615    2.5134   -1.0715 C   0  0  0  0  0  0  0  0  0  0  0  0
   -4.2185    3.2357   -2.1797 C   0  0  0  0  0  0  0  0  0  0  0  0
   -4.8599    3.0955   -3.4080 C   0  0  0  0  0  0  0  0  0  0  0  0
   -5.9430    2.2266   -3.5357 C   0  0  0  0  0  0  0  0  0  0  0  0
   -6.4097    1.4916   -2.4307 C   0  0  0  0  0  0  0  0  0  0  0  0
   -7.5221    0.4949   -2.6601 C   0  0  0  0  0  0  0  0  0  0  0  0
   -6.8759   -1.0212   -3.3542 S   0  0  0  0  0  0  0  0  0  0  0  0
   -7.6568   -2.1753   -2.7906 O   0  0  0  0  0  0  0  0  0  0  0  0
   -7.0642   -0.9744   -4.8453 O   0  0  0  0  0  0  0  0  0  0  0  0
   -5.1852   -1.1863   -2.9354 N   0  0  0  0  0  0  0  0  0  0  0  0
   -4.4292   -2.1755   -3.7286 C   0  0  0  0  0  0  0  0  0  0  0  0
   -5.1010   -3.5560   -3.7926 C   0  0  0  0  0  0  0  0  0  0  0  0
   -4.0862   -1.6388   -5.1249 C   0  0  0  0  0  0  0  0  0  0  0  0
   -8.8906    3.9440    4.8775 N   0  0  0  0  0  0  0  0  0  0  0  0
  -10.0402    4.8450    4.8026 C   0  0  0  0  0  0  0  0  0  0  0  0
  1  3  4  0
  1 14  4  0
  1  2  1  0
  3  4  4  0
  4  5  4  0
  5  6  4  0
  5 22  1  0
  6  7  1  0
  6 14  4  0
  7  8  1  0
  8  9  4  0
  8 12  4  0
  9 10  4  0
 10 11  4  0
 11 12  4  0
 12 13  1  0
 13 14  1  0
 13 15  1  6
 15 16  4  0
 15 20  4  0
 16 17  4  0
 17 18  4  0
 17 21  1  0
 18 19  4  0
 19 20  4  0
 23 24  4  0
 24 25  4  0
 25 26  1  0
 26 27  1  0
 27 28  1  0
 28 29  2  0
 28 30  1  0
 30 31  1  0
 31 32  1  0
 32 33  4  0
 33 34  4  0
 34 35  4  0
 35 36  4  0
 36 37  4  0
 37 38  1  0
 38 39  1  0
 39 40  2  0
 39 41  2  0
 39 42  1  0
 42 43  1  0
 43 44  1  0
 43 45  1  0
 25 46  4  0
 46 47  1  0
 37 32  4  0
  2 23  4  0
  2 46  4  0
M  END
$$$$

     RDKit          3D

 38 42  0  0  0  0  0  0  0  0999 V2000
   -7.6410    4.9930    6.8080 C   0  0  0  0  0  0  0  0  0  1  0  0
   -7.7310    4.0530    5.7140 C   0  0  0  0  0  0  0  0  0  2  0  0
   -6.4520    5.6300    6.8680 N   0  0  0  0  0  0  0  0  0  0  0  0
   -6.2260    6.5240    7.8670 N   0  0  0  0  0  0  0  0  0  0  0  0
   -7.1930    6.7500    8.7820 C   0  0  0  0  0  0  0  0  0  0  0  0
   -8.4240    6.1170    8.7580 C   0  0  0  0  0  0  0  0  0  0  0  0
   -9.3950    6.3570    9.7450 N   0  0  0  0  0  0  0  0  0  0  0  0
  -10.5620    5.6840    9.7600 C   0  0  0  0  0  0  0  0  0  0  0  0
  -11.5770    5.6820   10.5960 N   0  0  0  0  0  0  0  0  0  0  0  0
  -12.4690    4.7490   10.1080 N   0  0  0  0  0  0  0  0  0  0  0  0
  -12.0160    4.1880    8.9920 N   0  0  0  0  0  0  0  0  0  0  0  0
  -10.8400    4.7900    8.7610 N   0  0  0  0  0  0  0  0  0  0  0  0
   -9.9950    4.4790    7.6090 C   0  0  0  0  0  0  0  0  0  0  0  0
   -8.6630    5.2070    7.7200 C   0  0  0  0  0  0  0  0  0  0  0  0
  -10.7490    4.8610    6.3730 C   0  0  0  0  0  0  0  0  0  0  0  0
  -11.0350    6.2020    6.1170 C   0  0  0  0  0  0  0  0  0  0  0  0
  -11.7370    6.5580    4.9650 C   0  0  0  0  0  0  0  0  0  0  0  0
  -12.1550    5.5730    4.0710 C   0  0  0  0  0  0  0  0  0  0  0  0
  -11.8700    4.2310    4.3270 C   0  0  0  0  0  0  0  0  0  0  0  0
  -11.1660    3.8760    5.4790 C   0  0  0  0  0  0  0  0  0  0  0  0
  -12.0160    7.8660    4.7150 O   0  0  0  0  0  0  0  0  0  0  0  0
   -6.8990    7.6510    9.7710 O   0  0  0  0  0  0  0  0  0  0  0  0
   -6.9360    2.9763    5.4968 N   0  0  0  0  0  0  0  0  0  0  0  0
   -7.3848    2.2983    4.4501 N   0  0  0  0  0  0  0  0  0  0  0  0
   -8.4888    2.9367    4.0163 C   0  0  0  0  0  0  0  0  0  0  0  0
   -9.4885    2.3697    2.6365 S   0  0  0  0  0  0  0  0  0  0  0  0
  -10.6627    1.4334    3.6909 C   0  0  0  0  0  0  0  0  0  0  0  0
  -10.0124    0.1283    4.0772 C   0  0  0  0  0  0  0  0  0  0  0  0
   -9.7198   -0.7070    3.1777 O   0  0  0  0  0  0  0  0  0  0  0  0
   -9.7275   -0.1529    5.4576 N   0  0  0  0  0  0  0  0  0  0  0  0
   -9.2233   -1.4109    5.9325 C   0  0  0  0  0  0  0  0  0  0  0  0
   -8.9308   -1.5797    7.3194 N   0  0  0  0  0  0  0  0  0  0  0  0
   -9.0403   -2.3742    5.1400 O   0  0  0  0  0  0  0  0  0  0  0  0
  -12.0120    1.2072    2.9573 C   0  0  0  0  0  0  0  0  0  0  0  0
  -12.6849    2.5444    2.6028 C   0  0  0  0  0  0  0  0  0  0  0  0
  -12.9823    0.3705    3.8105 C   0  0  0  0  0  0  0  0  0  0  0  0
   -8.7571    4.0256    4.7602 N   0  0  0  0  0  0  0  0  0  0  0  0
   -9.8653    4.9655    4.6009 C   0  0  0  0  0  0  0  0  0  0  0  0
  1  3  4  0
  1 14  4  0
  1  2  1  0
  3  4  4  0
  4  5  4  0
  5  6  4  0
  5 22  1  0
  6  7  1  0
  6 14  4  0
  7  8  1  0
  8  9  4  0
  8 12  4  0
  9 10  4  0
 10 11  4  0
 11 12  4  0
 12 13  1  0
 13 14  1  0
 13 15  1  6
 15 16  4  0
 15 20  4  0
 16 17  4  0
 17 18  4  0
 17 21  1  0
 18 19  4  0
 19 20  4  0
 23 24  4  0
 24 25  4  0
 25 26  1  0
 26 27  1  0
 27 28  1  0
 28 29  2  0
 28 30  1  0
 30 31  1  0
 31 32  1  0
 31 33  2  0
 27 34  1  0
 34 35  1  0
 34 36  1  0
 25 37  4  0
 37 38  1  0
  2 23  4  0
  2 37  4  0
M  END
$$$$

     RDKit          3D

 38 42  0  0  0  0  0  0  0  0999 V2000
   -7.6410    4.9930    6.8080 C   0  0  0  0  0  0  0  0  0  1  0  0
   -7.7310    4.0530    5.7140 C   0  0  0  0  0  0  0  0  0  2  0  0
   -6.4520    5.6300    6.8680 N   0  0  0  0  0  0  0  0  0  0  0  0
   -6.2260    6.5240    7.8670 N   0  0  0  0  0  0  0  0  0  0  0  0
   -7.1930    6.7500    8.7820 C   0  0  0  0  0  0  0  0  0  0  0  0
   -8.4240    6.1170    8.7580 C   0  0  0  0  0  0  0  0  0  0  0  0
   -9.3950    6.3570    9.7450 N   0  0  0  0  0  0  0  0  0  0  0  0
  -10.5620    5.6840    9.7600 C   0  0  0  0  0  0  0  0  0  0  0  0
  -11.5770    5.6820   10.5960 N   0  0  0  0  0  0  0  0  0  0  0  0
  -12.4690    4.7490   10.1080 N   0  0  0  0  0  0  0  0  0  0  0  0
  -12.0160    4.1880    8.9920 N   0  0  0  0  0  0  0  0  0  0  0  0
  -10.8400    4.7900    8.7610 N   0  0  0  0  0  0  0  0  0  0  0  0
   -9.9950    4.4790    7.6090 C   0  0  0  0  0  0  0  0  0  0  0  0
   -8.6630    5.2070    7.7200 C   0  0  0  0  0  0  0  0  0  0  0  0
  -10.7490    4.8610    6.3730 C   0  0  0  0  0  0  0  0  0  0  0  0
  -11.0350    6.2020    6.1170 C   0  0  0  0  0  0  0  0  0  0  0  0
  -11.7370    6.5580    4.9650 C   0  0  0  0  0  0  0  0  0  0  0  0
  -12.1550    5.5730    4.0710 C   0  0  0  0  0  0  0  0  0  0  0  0
  -11.8700    4.2310    4.3270 C   0  0  0  0  0  0  0  0  0  0  0  0
  -11.1660    3.8760    5.4790 C   0  0  0  0  0  0  0  0  0  0  0  0
  -12.0160    7.8660    4.7150 O   0  0  0  0  0  0  0  0  0  0  0  0
   -6.8990    7.6510    9.7710 O   0  0  0  0  0  0  0  0  0  0  0  0
   -6.8907    3.0237    5.4518 N   0  0  0  0  0  0  0  0  0  0  0  0
   -7.3385    2.3374    4.4098 N   0  0  0  0  0  0  0  0  0  0  0  0
   -8.4848    2.9247    4.0178 C   0  0  0  0  0  0  0  0  0  0  0  0
   -9.4845    2.3355    2.6462 S   0  0  0  0  0  0  0  0  0  0  0  0
   -8.6664    3.3730    1.3709 C   0  0  0  0  0  0  0  0  0  0  0  0
   -9.6451    3.6383    0.2512 C   0  0  0  0  0  0  0  0  0  0  0  0
  -10.2229    2.6708   -0.3157 O   0  0  0  0  0  0  0  0  0  0  0  0
   -9.9354    4.9911   -0.1444 N   0  0  0  0  0  0  0  0  0  0  0  0
  -10.9495    5.3442   -1.0991 C   0  0  0  0  0  0  0  0  0  0  0  0
  -11.1393    6.7124   -1.4602 N   0  0  0  0  0  0  0  0  0  0  0  0
  -11.6922    4.4619   -1.6098 O   0  0  0  0  0  0  0  0  0  0  0  0
   -7.3343    2.7386    0.8800 C   0  0  0  0  0  0  0  0  0  0  0  0
   -6.5505    3.7114   -0.0125 C   0  0  0  0  0  0  0  0  0  0  0  0
   -7.5133    1.3893    0.1626 C   0  0  0  0  0  0  0  0  0  0  0  0
   -8.7896    3.9837    4.7914 N   0  0  0  0  0  0  0  0  0  0  0  0
   -9.9294    4.8881    4.6503 C   0  0  0  0  0  0  0  0  0  0  0  0
  1  3  4  0
  1 14  4  0
  1  2  1  0
  3  4  4  0
  4  5  4  0
  5  6  4  0
  5 22  1  0
  6  7  1  0
  6 14  4  0
  7  8  1  0
  8  9  4  0
  8 12  4  0
  9 10  4  0
 10 11  4  0
 11 12  4  0
 12 13  1  0
 13 14  1  0
 13 15  1  6
 15 16  4  0
 15 20  4  0
 16 17  4  0
 17 18  4  0
 17 21  1  0
 18 19  4  0
 19 20  4  0
 23 24  4  0
 24 25  4  0
 25 26  1  0
 26 27  1  0
 27 28  1  0
 28 29  2  0
 28 30  1  0
 30 31  1  0
 31 32  1  0
 31 33  2  0
 27 34  1  0
 34 35  1  0
 34 36  1  0
 25 37  4  0
 37 38  1  0
  2 23  4  0
  2 37  4  0
M  END
$$$$

     RDKit          3D

 46 52  0  0  0  0  0  0  0  0999 V2000
   -7.6410    4.9930    6.8080 C   0  0  0  0  0  0  0  0  0  1  0  0
   -7.7310    4.0530    5.7140 C   0  0  0  0  0  0  0  0  0  2  0  0
   -6.4520    5.6300    6.8680 N   0  0  0  0  0  0  0  0  0  0  0  0
   -6.2260    6.5240    7.8670 N   0  0  0  0  0  0  0  0  0  0  0  0
   -7.1930    6.7500    8.7820 C   0  0  0  0  0  0  0  0  0  0  0  0
   -8.4240    6.1170    8.7580 C   0  0  0  0  0  0  0  0  0  0  0  0
   -9.3950    6.3570    9.7450 N   0  0  0  0  0  0  0  0  0  0  0  0
  -10.5620    5.6840    9.7600 C   0  0  0  0  0  0  0  0  0  0  0  0
  -11.5770    5.6820   10.5960 N   0  0  0  0  0  0  0  0  0  0  0  0
  -12.4690    4.7490   10.1080 N   0  0  0  0  0  0  0  0  0  0  0  0
  -12.0160    4.1880    8.9920 N   0  0  0  0  0  0  0  0  0  0  0  0
  -10.8400    4.7900    8.7610 N   0  0  0  0  0  0  0  0  0  0  0  0
   -9.9950    4.4790    7.6090 C   0  0  0  0  0  0  0  0  0  0  0  0
   -8.6630    5.2070    7.7200 C   0  0  0  0  0  0  0  0  0  0  0  0
  -10.7490    4.8610    6.3730 C   0  0  0  0  0  0  0  0  0  0  0  0
  -11.0350    6.2020    6.1170 C   0  0  0  0  0  0  0  0  0  0  0  0
  -11.7370    6.5580    4.9650 C   0  0  0  0  0  0  0  0  0  0  0  0
  -12.1550    5.5730    4.0710 C   0  0  0  0  0  0  0  0  0  0  0  0
  -11.8700    4.2310    4.3270 C   0  0  0  0  0  0  0  0  0  0  0  0
  -11.1660    3.8760    5.4790 C   0  0  0  0  0  0  0  0  0  0  0  0
  -12.0160    7.8660    4.7150 O   0  0  0  0  0  0  0  0  0  0  0  0
   -6.8990    7.6510    9.7710 O   0  0  0  0  0  0  0  0  0  0  0  0
   -6.7717    2.7049    5.3992 S   0  0  0  0  0  0  0  0  0  0  0  0
   -7.6957    2.1429    4.1074 C   0  0  0  0  0  0  0  0  0  0  0  0
   -7.4105    0.9914    3.2974 N   0  0  0  0  0  0  0  0  0  0  0  0
   -6.4026    0.0075    3.5892 C   0  0  0  0  0  0  0  0  0  0  0  0
   -5.7030    0.0854    4.6354 O   0  0  0  0  0  0  0  0  0  0  0  0
   -6.1954   -1.1546    2.6615 C   0  0  0  0  0  0  0  0  0  0  0  0
   -4.7875   -1.2163    2.2179 N   0  0  0  0  0  0  0  0  0  0  0  0
   -3.9236   -2.1330    2.7623 C   0  0  0  0  0  0  0  0  0  0  0  0
   -4.3064   -2.9313    3.6611 O   0  0  0  0  0  0  0  0  0  0  0  0
   -2.6015   -2.1917    2.3330 C   0  0  0  0  0  0  0  0  0  0  0  0
   -2.1728   -1.3055    1.3561 C   0  0  0  0  0  0  0  0  0  0  0  0
   -3.0307   -0.3842    0.8310 N   0  0  0  0  0  0  0  0  0  0  0  0
   -2.5315    0.5161   -0.2241 C   0  0  0  0  0  0  0  0  0  0  0  0
   -2.5097   -0.1957   -1.5524 C   0  0  0  0  0  0  0  0  0  0  0  0
   -3.7119   -0.4851   -2.2193 C   0  0  0  0  0  0  0  0  0  0  0  0
   -3.6943   -1.1557   -3.4452 C   0  0  0  0  0  0  0  0  0  0  0  0
   -2.4776   -1.5424   -4.0146 C   0  0  0  0  0  0  0  0  0  0  0  0
   -1.2769   -1.2616   -3.3567 C   0  0  0  0  0  0  0  0  0  0  0  0
   -1.2906   -0.5912   -2.1293 C   0  0  0  0  0  0  0  0  0  0  0  0
   -4.3363   -0.3399    1.2583 C   0  0  0  0  0  0  0  0  0  0  0  0
   -5.1299    0.5133    0.7676 O   0  0  0  0  0  0  0  0  0  0  0  0
   -8.7587    2.9431    3.8737 N   0  0  0  0  0  0  0  0  0  0  0  0
   -8.8183    3.9869    4.7443 C   0  0  0  0  0  0  0  0  0  0  0  0
   -9.9072    5.0088    4.6451 C   0  0  0  0  0  0  0  0  0  0  0  0
  1  3  4  0
  1 14  4  0
  1  2  1  0
  3  4  4  0
  4  5  4  0
  5  6  4  0
  5 22  1  0
  6  7  1  0
  6 14  4  0
  7  8  1  0
  8  9  4  0
  8 12  4  0
  9 10  4  0
 10 11  4  0
 11 12  4  0
 12 13  1  0
 13 14  1  0
 13 15  1  6
 15 16  4  0
 15 20  4  0
 16 17  4  0
 17 18  4  0
 17 21  1  0
 18 19  4  0
 19 20  4  0
 23 24  4  0
 24 25  1  0
 25 26  1  0
 26 27  2  0
 26 28  1  0
 28 29  1  0
 29 30  4  0
 30 31  2  0
 30 32  4  0
 32 33  4  0
 33 34  4  0
 34 35  1  0
 35 36  1  0
 36 37  4  0
 37 38  4  0
 38 39  4  0
 39 40  4  0
 40 41  4  0
 34 42  4  0
 42 43  2  0
 24 44  4  0
 44 45  4  0
 45 46  1  0
 42 29  4  0
 41 36  4  0
  2 23  4  0
  2 45  4  0
M  END
$$$$

     RDKit          3D

 46 52  0  0  0  0  0  0  0  0999 V2000
   -7.6410    4.9930    6.8080 C   0  0  0  0  0  0  0  0  0  1  0  0
   -7.7310    4.0530    5.7140 C   0  0  0  0  0  0  0  0  0  2  0  0
   -6.4520    5.6300    6.8680 N   0  0  0  0  0  0  0  0  0  0  0  0
   -6.2260    6.5240    7.8670 N   0  0  0  0  0  0  0  0  0  0  0  0
   -7.1930    6.7500    8.7820 C   0  0  0  0  0  0  0  0  0  0  0  0
   -8.4240    6.1170    8.7580 C   0  0  0  0  0  0  0  0  0  0  0  0
   -9.3950    6.3570    9.7450 N   0  0  0  0  0  0  0  0  0  0  0  0
  -10.5620    5.6840    9.7600 C   0  0  0  0  0  0  0  0  0  0  0  0
  -11.5770    5.6820   10.5960 N   0  0  0  0  0  0  0  0  0  0  0  0
  -12.4690    4.7490   10.1080 N   0  0  0  0  0  0  0  0  0  0  0  0
  -12.0160    4.1880    8.9920 N   0  0  0  0  0  0  0  0  0  0  0  0
  -10.8400    4.7900    8.7610 N   0  0  0  0  0  0  0  0  0  0  0  0
   -9.9950    4.4790    7.6090 C   0  0  0  0  0  0  0  0  0  0  0  0
   -8.6630    5.2070    7.7200 C   0  0  0  0  0  0  0  0  0  0  0  0
  -10.7490    4.8610    6.3730 C   0  0  0  0  0  0  0  0  0  0  0  0
  -11.0350    6.2020    6.1170 C   0  0  0  0  0  0  0  0  0  0  0  0
  -11.7370    6.5580    4.9650 C   0  0  0  0  0  0  0  0  0  0  0  0
  -12.1550    5.5730    4.0710 C   0  0  0  0  0  0  0  0  0  0  0  0
  -11.8700    4.2310    4.3270 C   0  0  0  0  0  0  0  0  0  0  0  0
  -11.1660    3.8760    5.4790 C   0  0  0  0  0  0  0  0  0  0  0  0
  -12.0160    7.8660    4.7150 O   0  0  0  0  0  0  0  0  0  0  0  0
   -6.8990    7.6510    9.7710 O   0  0  0  0  0  0  0  0  0  0  0  0
   -6.7914    3.0339    5.4651 C   0  0  0  0  0  0  0  0  0  0  0  0
   -6.9229    2.0809    4.4470 C   0  0  0  0  0  0  0  0  0  0  0  0
   -5.8661    1.1289    4.2305 N   0  0  0  0  0  0  0  0  0  0  0  0
   -6.0517   -0.1844    3.6824 C   0  0  0  0  0  0  0  0  0  0  0  0
   -5.1276   -0.6943    2.9932 O   0  0  0  0  0  0  0  0  0  0  0  0
   -7.3081   -0.9772    3.9418 C   0  0  0  0  0  0  0  0  0  0  0  0
   -7.0137   -2.4098    4.4037 C   0  0  0  0  0  0  0  0  0  0  0  0
   -6.2857   -2.4532    5.7549 C   0  0  0  0  0  0  0  0  0  0  0  0
   -6.0840   -3.8763    6.1979 C   0  0  0  0  0  0  0  0  0  0  0  0
   -5.3614   -4.7203    5.4138 N   0  0  0  0  0  0  0  0  0  0  0  0
   -5.1760   -6.0189    5.7588 C   0  0  0  0  0  0  0  0  0  0  0  0
   -4.4419   -6.8694    4.9195 C   0  0  0  0  0  0  0  0  0  0  0  0
   -4.2676   -8.2142    5.2644 C   0  0  0  0  0  0  0  0  0  0  0  0
   -4.8156   -8.7123    6.4518 C   0  0  0  0  0  0  0  0  0  0  0  0
   -5.5414   -7.8673    7.3015 C   0  0  0  0  0  0  0  0  0  0  0  0
   -5.7317   -6.5151    6.9568 C   0  0  0  0  0  0  0  0  0  0  0  0
   -6.4637   -5.6256    7.7607 C   0  0  0  0  0  0  0  0  0  0  0  0
   -6.9751   -6.0138    8.8471 O   0  0  0  0  0  0  0  0  0  0  0  0
   -6.6230   -4.3304    7.3668 N   0  0  0  0  0  0  0  0  0  0  0  0
   -8.0511    2.1215    3.6135 C   0  0  0  0  0  0  0  0  0  0  0  0
   -9.0483    3.0764    3.8189 C   0  0  0  0  0  0  0  0  0  0  0  0
   -8.9277    4.0285    4.8490 C   0  0  0  0  0  0  0  0  0  0  0  0
   -9.9012    5.0222    5.0480 O   0  0  0  0  0  0  0  0  0  0  0  0
  -11.0934    5.1502    4.2822 C   0  0  0  0  0  0  0  0  0  0  0  0
  1  3  4  0
  1 14  4  0
  1  2  1  0
  3  4  4  0
  4  5  4  0
  5  6  4  0
  5 22  1  0
  6  7  1  0
  6 14  4  0
  7  8  1  0
  8  9  4  0
  8 12  4  0
  9 10  4  0
 10 11  4  0
 11 12  4  0
 12 13  1  0
 13 14  1  0
 13 15  1  6
 15 16  4  0
 15 20  4  0
 16 17  4  0
 17 18  4  0
 17 21  1  0
 18 19  4  0
 19 20  4  0
 23 24  4  0
 24 25  1  0
 25 26  1  0
 26 27  2  0
 26 28  1  0
 28 29  1  0
 29 30  1  0
 30 31  1  0
 31 32  4  0
 32 33  4  0
 33 34  4  0
 34 35  4  0
 35 36  4  0
 36 37  4  0
 37 38  4  0
 38 39  4  0
 39 40  2  0
 39 41  4  0
 24 42  4  0
 42 43  4  0
 43 44  4  0
 44 45  1  0
 45 46  1  0
 41 31  4  0
 38 33  4  0
  2 23  4  0
  2 44  4  0
M  END
$$$$

     RDKit          3D

 46 52  0  0  0  0  0  0  0  0999 V2000
   -7.6410    4.9930    6.8080 C   0  0  0  0  0  0  0  0  0  1  0  0
   -7.7310    4.0530    5.7140 C   0  0  0  0  0  0  0  0  0  2  0  0
   -6.4520    5.6300    6.8680 N   0  0  0  0  0  0  0  0  0  0  0  0
   -6.2260    6.5240    7.8670 N   0  0  0  0  0  0  0  0  0  0  0  0
   -7.1930    6.7500    8.7820 C   0  0  0  0  0  0  0  0  0  0  0  0
   -8.4240    6.1170    8.7580 C   0  0  0  0  0  0  0  0  0  0  0  0
   -9.3950    6.3570    9.7450 N   0  0  0  0  0  0  0  0  0  0  0  0
  -10.5620    5.6840    9.7600 C   0  0  0  0  0  0  0  0  0  0  0  0
  -11.5770    5.6820   10.5960 N   0  0  0  0  0  0  0  0  0  0  0  0
  -12.4690    4.7490   10.1080 N   0  0  0  0  0  0  0  0  0  0  0  0
  -12.0160    4.1880    8.9920 N   0  0  0  0  0  0  0  0  0  0  0  0
  -10.8400    4.7900    8.7610 N   0  0  0  0  0  0  0  0  0  0  0  0
   -9.9950    4.4790    7.6090 C   0  0  0  0  0  0  0  0  0  0  0  0
   -8.6630    5.2070    7.7200 C   0  0  0  0  0  0  0  0  0  0  0  0
  -10.7490    4.8610    6.3730 C   0  0  0  0  0  0  0  0  0  0  0  0
  -11.0350    6.2020    6.1170 C   0  0  0  0  0  0  0  0  0  0  0  0
  -11.7370    6.5580    4.9650 C   0  0  0  0  0  0  0  0  0  0  0  0
  -12.1550    5.5730    4.0710 C   0  0  0  0  0  0  0  0  0  0  0  0
  -11.8700    4.2310    4.3270 C   0  0  0  0  0  0  0  0  0  0  0  0
  -11.1660    3.8760    5.4790 C   0  0  0  0  0  0  0  0  0  0  0  0
  -12.0160    7.8660    4.7150 O   0  0  0  0  0  0  0  0  0  0  0  0
   -6.8990    7.6510    9.7710 O   0  0  0  0  0  0  0  0  0  0  0  0
   -6.8093    3.0121    5.4847 C   0  0  0  0  0  0  0  0  0  0  0  0
   -6.9305    2.0772    4.4484 C   0  0  0  0  0  0  0  0  0  0  0  0
   -5.9312    1.0547    4.2973 N   0  0  0  0  0  0  0  0  0  0  0  0
   -5.6135    0.4199    3.0494 C   0  0  0  0  0  0  0  0  0  0  0  0
   -5.3637   -0.8152    3.0357 O   0  0  0  0  0  0  0  0  0  0  0  0
   -5.4839    1.2147    1.7737 C   0  0  0  0  0  0  0  0  0  0  0  0
   -4.0150    1.5037    1.4217 C   0  0  0  0  0  0  0  0  0  0  0  0
   -3.2863    0.2634    0.8807 C   0  0  0  0  0  0  0  0  0  0  0  0
   -1.8888    0.6024    0.4437 C   0  0  0  0  0  0  0  0  0  0  0  0
   -0.8317    0.1089    1.1421 N   0  0  0  0  0  0  0  0  0  0  0  0
    0.4465    0.3735    0.7667 C   0  0  0  0  0  0  0  0  0  0  0  0
    1.5159   -0.1465    1.5048 C   0  0  0  0  0  0  0  0  0  0  0  0
    2.8324    0.1190    1.1125 C   0  0  0  0  0  0  0  0  0  0  0  0
    3.0855    0.9068   -0.0152 C   0  0  0  0  0  0  0  0  0  0  0  0
    2.0236    1.4349   -0.7567 C   0  0  0  0  0  0  0  0  0  0  0  0
    0.6951    1.1706   -0.3708 C   0  0  0  0  0  0  0  0  0  0  0  0
   -0.4104    1.6697   -1.0801 C   0  0  0  0  0  0  0  0  0  0  0  0
   -0.2459    2.3891   -2.1044 O   0  0  0  0  0  0  0  0  0  0  0  0
   -1.6731    1.3742   -0.6608 N   0  0  0  0  0  0  0  0  0  0  0  0
   -8.0625    2.1147    3.6209 C   0  0  0  0  0  0  0  0  0  0  0  0
   -9.0390    3.0964    3.8035 C   0  0  0  0  0  0  0  0  0  0  0  0
   -8.9123    4.0521    4.8312 C   0  0  0  0  0  0  0  0  0  0  0  0
   -9.8704    5.0644    5.0206 O   0  0  0  0  0  0  0  0  0  0  0  0
  -11.0411    5.2299    4.2271 C   0  0  0  0  0  0  0  0  0  0  0  0
  1  3  4  0
  1 14  4  0
  1  2  1  0
  3  4  4  0
  4  5  4  0
  5  6  4  0
  5 22  1  0
  6  7  1  0
  6 14  4  0
  7  8  1  0
  8  9  4  0
  8 12  4  0
  9 10  4  0
 10 11  4  0
 11 12  4  0
 12 13  1  0
 13 14  1  0
 13 15  1  6
 15 16  4  0
 15 20  4  0
 16 17  4  0
 17 18  4  0
 17 21  1  0
 18 19  4  0
 19 20  4  0
 23 24  4  0
 24 25  1  0
 25 26  1  0
 26 27  2  0
 26 28  1  0
 28 29  1  0
 29 30  1  0
 30 31  1  0
 31 32  4  0
 32 33  4  0
 33 34  4  0
 34 35  4  0
 35 36  4  0
 36 37  4  0
 37 38  4  0
 38 39  4  0
 39 40  2  0
 39 41  4  0
 24 42  4  0
 42 43  4  0
 43 44  4  0
 44 45  1  0
 45 46  1  0
 41 31  4  0
 38 33  4  0
  2 23  4  0
  2 44  4  0
M  END
$$$$

     RDKit          3D

 46 52  0  0  0  0  0  0  0  0999 V2000
   -7.6410    4.9930    6.8080 C   0  0  0  0  0  0  0  0  0  1  0  0
   -7.7310    4.0530    5.7140 C   0  0  0  0  0  0  0  0  0  2  0  0
   -6.4520    5.6300    6.8680 N   0  0  0  0  0  0  0  0  0  0  0  0
   -6.2260    6.5240    7.8670 N   0  0  0  0  0  0  0  0  0  0  0  0
   -7.1930    6.7500    8.7820 C   0  0  0  0  0  0  0  0  0  0  0  0
   -8.4240    6.1170    8.7580 C   0  0  0  0  0  0  0  0  0  0  0  0
   -9.3950    6.3570    9.7450 N   0  0  0  0  0  0  0  0  0  0  0  0
  -10.5620    5.6840    9.7600 C   0  0  0  0  0  0  0  0  0  0  0  0
  -11.5770    5.6820   10.5960 N   0  0  0  0  0  0  0  0  0  0  0  0
  -12.4690    4.7490   10.1080 N   0  0  0  0  0  0  0  0  0  0  0  0
  -12.0160    4.1880    8.9920 N   0  0  0  0  0  0  0  0  0  0  0  0
  -10.8400    4.7900    8.7610 N   0  0  0  0  0  0  0  0  0  0  0  0
   -9.9950    4.4790    7.6090 C   0  0  0  0  0  0  0  0  0  0  0  0
   -8.6630    5.2070    7.7200 C   0  0  0  0  0  0  0  0  0  0  0  0
  -10.7490    4.8610    6.3730 C   0  0  0  0  0  0  0  0  0  0  0  0
  -11.0350    6.2020    6.1170 C   0  0  0  0  0  0  0  0  0  0  0  0
  -11.7370    6.5580    4.9650 C   0  0  0  0  0  0  0  0  0  0  0  0
  -12.1550    5.5730    4.0710 C   0  0  0  0  0  0  0  0  0  0  0  0
  -11.8700    4.2310    4.3270 C   0  0  0  0  0  0  0  0  0  0  0  0
  -11.1660    3.8760    5.4790 C   0  0  0  0  0  0  0  0  0  0  0  0
  -12.0160    7.8660    4.7150 O   0  0  0  0  0  0  0  0  0  0  0  0
   -6.8990    7.6510    9.7710 O   0  0  0  0  0  0  0  0  0  0  0  0
   -6.8202    2.9999    5.5104 C   0  0  0  0  0  0  0  0  0  0  0  0
   -6.9527    2.0442    4.4965 C   0  0  0  0  0  0  0  0  0  0  0  0
   -5.9245    1.0573    4.3195 N   0  0  0  0  0  0  0  0  0  0  0  0
   -6.1608   -0.3291    4.0170 C   0  0  0  0  0  0  0  0  0  0  0  0
   -5.2251   -1.0006    3.5069 O   0  0  0  0  0  0  0  0  0  0  0  0
   -7.4389   -1.0322    4.4187 C   0  0  0  0  0  0  0  0  0  0  0  0
   -7.8710   -2.0981    3.3994 C   0  0  0  0  0  0  0  0  0  0  0  0
   -8.3187   -1.4835    2.0666 C   0  0  0  0  0  0  0  0  0  0  0  0
   -8.4771   -2.5462    1.0176 C   0  0  0  0  0  0  0  0  0  0  0  0
   -9.7137   -2.8436    0.5366 N   0  0  0  0  0  0  0  0  0  0  0  0
   -9.8872   -3.7986   -0.4130 C   0  0  0  0  0  0  0  0  0  0  0  0
  -11.1707   -4.0881   -0.8917 C   0  0  0  0  0  0  0  0  0  0  0  0
  -11.3464   -5.0734   -1.8675 C   0  0  0  0  0  0  0  0  0  0  0  0
  -10.2428   -5.7748   -2.3670 C   0  0  0  0  0  0  0  0  0  0  0  0
   -8.9577   -5.4935   -1.8944 C   0  0  0  0  0  0  0  0  0  0  0  0
   -8.7707   -4.5012   -0.9154 C   0  0  0  0  0  0  0  0  0  0  0  0
   -7.5023   -4.1728   -0.4106 C   0  0  0  0  0  0  0  0  0  0  0  0
   -6.4693   -4.7650   -0.8278 O   0  0  0  0  0  0  0  0  0  0  0  0
   -7.3830   -3.2033    0.5368 N   0  0  0  0  0  0  0  0  0  0  0  0
   -8.0392    2.1239    3.6148 C   0  0  0  0  0  0  0  0  0  0  0  0
   -9.0045    3.1196    3.7733 C   0  0  0  0  0  0  0  0  0  0  0  0
   -8.8899    4.0702    4.8071 C   0  0  0  0  0  0  0  0  0  0  0  0
   -9.8324    5.0999    4.9702 O   0  0  0  0  0  0  0  0  0  0  0  0
  -10.9314    5.3360    4.0946 C   0  0  0  0  0  0  0  0  0  0  0  0
  1  3  4  0
  1 14  4  0
  1  2  1  0
  3  4  4  0
  4  5  4  0
  5  6  4  0
  5 22  1  0
  6  7  1  0
  6 14  4  0
  7  8  1  0
  8  9  4  0
  8 12  4  0
  9 10  4  0
 10 11  4  0
 11 12  4  0
 12 13  1  0
 13 14  1  0
 13 15  1  6
 15 16  4  0
 15 20  4  0
 16 17  4  0
 17 18  4  0
 17 21  1  0
 18 19  4  0
 19 20  4  0
 23 24  4  0
 24 25  1  0
 25 26  1  0
 26 27  2  0
 26 28  1  0
 28 29  1  0
 29 30  1  0
 30 31  1  0
 31 32  4  0
 32 33  4  0
 33 34  4  0
 34 35  4  0
 35 36  4  0
 36 37  4  0
 37 38  4  0
 38 39  4  0
 39 40  2  0
 39 41  4  0
 24 42  4  0
 42 43  4  0
 43 44  4  0
 44 45  1  0
 45 46  1  0
 41 31  4  0
 38 33  4  0
  2 23  4  0
  2 44  4  0
M  END
$$$$

     RDKit          3D

 46 52  0  0  0  0  0  0  0  0999 V2000
   -7.6410    4.9930    6.8080 C   0  0  0  0  0  0  0  0  0  1  0  0
   -7.7310    4.0530    5.7140 C   0  0  0  0  0  0  0  0  0  2  0  0
   -6.4520    5.6300    6.8680 N   0  0  0  0  0  0  0  0  0  0  0  0
   -6.2260    6.5240    7.8670 N   0  0  0  0  0  0  0  0  0  0  0  0
   -7.1930    6.7500    8.7820 C   0  0  0  0  0  0  0  0  0  0  0  0
   -8.4240    6.1170    8.7580 C   0  0  0  0  0  0  0  0  0  0  0  0
   -9.3950    6.3570    9.7450 N   0  0  0  0  0  0  0  0  0  0  0  0
  -10.5620    5.6840    9.7600 C   0  0  0  0  0  0  0  0  0  0  0  0
  -11.5770    5.6820   10.5960 N   0  0  0  0  0  0  0  0  0  0  0  0
  -12.4690    4.7490   10.1080 N   0  0  0  0  0  0  0  0  0  0  0  0
  -12.0160    4.1880    8.9920 N   0  0  0  0  0  0  0  0  0  0  0  0
  -10.8400    4.7900    8.7610 N   0  0  0  0  0  0  0  0  0  0  0  0
   -9.9950    4.4790    7.6090 C   0  0  0  0  0  0  0  0  0  0  0  0
   -8.6630    5.2070    7.7200 C   0  0  0  0  0  0  0  0  0  0  0  0
  -10.7490    4.8610    6.3730 C   0  0  0  0  0  0  0  0  0  0  0  0
  -11.0350    6.2020    6.1170 C   0  0  0  0  0  0  0  0  0  0  0  0
  -11.7370    6.5580    4.9650 C   0  0  0  0  0  0  0  0  0  0  0  0
  -12.1550    5.5730    4.0710 C   0  0  0  0  0  0  0  0  0  0  0  0
  -11.8700    4.2310    4.3270 C   0  0  0  0  0  0  0  0  0  0  0  0
  -11.1660    3.8760    5.4790 C   0  0  0  0  0  0  0  0  0  0  0  0
  -12.0160    7.8660    4.7150 O   0  0  0  0  0  0  0  0  0  0  0  0
   -6.8990    7.6510    9.7710 O   0  0  0  0  0  0  0  0  0  0  0  0
   -6.8129    3.0058    5.5004 C   0  0  0  0  0  0  0  0  0  0  0  0
   -6.9662    2.0243    4.5125 C   0  0  0  0  0  0  0  0  0  0  0  0
   -5.9651    1.0055    4.3661 N   0  0  0  0  0  0  0  0  0  0  0  0
   -5.4839    0.5058    3.1067 C   0  0  0  0  0  0  0  0  0  0  0  0
   -4.8918   -0.6062    3.0795 O   0  0  0  0  0  0  0  0  0  0  0  0
   -5.5685    1.3132    1.8372 C   0  0  0  0  0  0  0  0  0  0  0  0
   -6.3295    0.5527    0.7441 C   0  0  0  0  0  0  0  0  0  0  0  0
   -6.5030    1.4184   -0.5083 C   0  0  0  0  0  0  0  0  0  0  0  0
   -7.2613    0.6729   -1.5700 C   0  0  0  0  0  0  0  0  0  0  0  0
   -6.6961   -0.4185   -2.1514 N   0  0  0  0  0  0  0  0  0  0  0  0
   -7.3445   -1.1187   -3.1160 C   0  0  0  0  0  0  0  0  0  0  0  0
   -6.7387   -2.2389   -3.6962 C   0  0  0  0  0  0  0  0  0  0  0  0
   -7.4068   -2.9588   -4.6909 C   0  0  0  0  0  0  0  0  0  0  0  0
   -8.6812   -2.5636   -5.1087 C   0  0  0  0  0  0  0  0  0  0  0  0
   -9.2950   -1.4460   -4.5343 C   0  0  0  0  0  0  0  0  0  0  0  0
   -8.6299   -0.7151   -3.5330 C   0  0  0  0  0  0  0  0  0  0  0  0
   -9.1961    0.4161   -2.9221 C   0  0  0  0  0  0  0  0  0  0  0  0
  -10.3436    0.8207   -3.2560 O   0  0  0  0  0  0  0  0  0  0  0  0
   -8.5026    1.0842   -1.9592 N   0  0  0  0  0  0  0  0  0  0  0  0
   -8.1344    2.0063    3.7377 C   0  0  0  0  0  0  0  0  0  0  0  0
   -9.1061    2.9937    3.9057 C   0  0  0  0  0  0  0  0  0  0  0  0
   -8.9326    4.0083    4.8529 C   0  0  0  0  0  0  0  0  0  0  0  0
   -9.9110    5.0038    4.9444 O   0  0  0  0  0  0  0  0  0  0  0  0
   -9.6487    6.3607    4.6033 C   0  0  0  0  0  0  0  0  0  0  0  0
  1  3  4  0
  1 14  4  0
  1  2  1  0
  3  4  4  0
  4  5  4  0
  5  6  4  0
  5 22  1  0
  6  7  1  0
  6 14  4  0
  7  8  1  0
  8  9  4  0
  8 12  4  0
  9 10  4  0
 10 11  4  0
 11 12  4  0
 12 13  1  0
 13 14  1  0
 13 15  1  6
 15 16  4  0
 15 20  4  0
 16 17  4  0
 17 18  4  0
 17 21  1  0
 18 19  4  0
 19 20  4  0
 23 24  4  0
 24 25  1  0
 25 26  1  0
 26 27  2  0
 26 28  1  0
 28 29  1  0
 29 30  1  0
 30 31  1  0
 31 32  4  0
 32 33  4  0
 33 34  4  0
 34 35  4  0
 35 36  4  0
 36 37  4  0
 37 38  4  0
 38 39  4  0
 39 40  2  0
 39 41  4  0
 24 42  4  0
 42 43  4  0
 43 44  4  0
 44 45  1  0
 45 46  1  0
 41 31  4  0
 38 33  4  0
  2 23  4  0
  2 44  4  0
M  END
$$$$

     RDKit          3D

 33 38  0  0  0  0  0  0  0  0999 V2000
   -7.6410    4.9930    6.8080 C   0  0  0  0  0  0  0  0  0  1  0  0
   -7.7310    4.0530    5.7140 C   0  0  0  0  0  0  0  0  0  2  0  0
   -6.4520    5.6300    6.8680 N   0  0  0  0  0  0  0  0  0  0  0  0
   -6.2260    6.5240    7.8670 N   0  0  0  0  0  0  0  0  0  0  0  0
   -7.1930    6.7500    8.7820 C   0  0  0  0  0  0  0  0  0  0  0  0
   -8.4240    6.1170    8.7580 C   0  0  0  0  0  0  0  0  0  0  0  0
   -9.3950    6.3570    9.7450 N   0  0  0  0  0  0  0  0  0  0  0  0
  -10.5620    5.6840    9.7600 C   0  0  0  0  0  0  0  0  0  0  0  0
  -11.5770    5.6820   10.5960 N   0  0  0  0  0  0  0  0  0  0  0  0
  -12.4690    4.7490   10.1080 N   0  0  0  0  0  0  0  0  0  0  0  0
  -12.0160    4.1880    8.9920 N   0  0  0  0  0  0  0  0  0  0  0  0
  -10.8400    4.7900    8.7610 N   0  0  0  0  0  0  0  0  0  0  0  0
   -9.9950    4.4790    7.6090 C   0  0  0  0  0  0  0  0  0  0  0  0
   -8.6630    5.2070    7.7200 C   0  0  0  0  0  0  0  0  0  0  0  0
  -10.7490    4.8610    6.3730 C   0  0  0  0  0  0  0  0  0  0  0  0
  -11.0350    6.2020    6.1170 C   0  0  0  0  0  0  0  0  0  0  0  0
  -11.7370    6.5580    4.9650 C   0  0  0  0  0  0  0  0  0  0  0  0
  -12.1550    5.5730    4.0710 C   0  0  0  0  0  0  0  0  0  0  0  0
  -11.8700    4.2310    4.3270 C   0  0  0  0  0  0  0  0  0  0  0  0
  -11.1660    3.8760    5.4790 C   0  0  0  0  0  0  0  0  0  0  0  0
  -12.0160    7.8660    4.7150 O   0  0  0  0  0  0  0  0  0  0  0  0
   -6.8990    7.6510    9.7710 O   0  0  0  0  0  0  0  0  0  0  0  0
   -6.9841    2.9309    5.5217 N   0  0  0  0  0  0  0  0  0  0  0  0
   -7.4746    2.2535    4.4697 C   0  0  0  0  0  0  0  0  0  0  0  0
   -6.9720    1.0769    3.9139 C   0  0  0  0  0  0  0  0  0  0  0  0
   -5.8759    0.4690    4.4314 F   0  0  0  0  0  0  0  0  0  0  0  0
   -7.6342    0.5394    2.7956 C   0  0  0  0  0  0  0  0  0  0  0  0
   -8.7705    1.1847    2.2606 C   0  0  0  0  0  0  0  0  0  0  0  0
   -9.2558    2.3714    2.8396 C   0  0  0  0  0  0  0  0  0  0  0  0
   -8.5832    2.8777    3.9538 C   0  0  0  0  0  0  0  0  0  0  0  0
   -8.8052    4.0092    4.7169 C   0  0  0  0  0  0  0  0  0  0  0  0
   -9.8296    5.0378    4.4696 C   0  0  0  0  0  0  0  0  0  0  0  0
   -9.7956    6.1441    5.0688 O   0  0  0  0  0  0  0  0  0  0  0  0
  1  3  4  0
  1 14  4  0
  1  2  1  0
  3  4  4  0
  4  5  4  0
  5  6  4  0
  5 22  1  0
  6  7  1  0
  6 14  4  0
  7  8  1  0
  8  9  4  0
  8 12  4  0
  9 10  4  0
 10 11  4  0
 11 12  4  0
 12 13  1  0
 13 14  1  0
 13 15  1  6
 15 16  4  0
 15 20  4  0
 16 17  4  0
 17 18  4  0
 17 21  1  0
 18 19  4  0
 19 20  4  0
 23 24  4  0
 24 25  4  0
 25 26  1  0
 25 27  4  0
 27 28  4  0
 28 29  4  0
 29 30  4  0
 30 31  4  0
 31 32  1  0
 32 33  2  0
 30 24  4  0
  2 23  4  0
  2 31  4  0
M  END
$$$$

     RDKit          3D

 41 47  0  0  0  0  0  0  0  0999 V2000
   -7.6410    4.9930    6.8080 C   0  0  0  0  0  0  0  0  0  1  0  0
   -7.7310    4.0530    5.7140 C   0  0  0  0  0  0  0  0  0  2  0  0
   -6.4520    5.6300    6.8680 N   0  0  0  0  0  0  0  0  0  0  0  0
   -6.2260    6.5240    7.8670 N   0  0  0  0  0  0  0  0  0  0  0  0
   -7.1930    6.7500    8.7820 C   0  0  0  0  0  0  0  0  0  0  0  0
   -8.4240    6.1170    8.7580 C   0  0  0  0  0  0  0  0  0  0  0  0
   -9.3950    6.3570    9.7450 N   0  0  0  0  0  0  0  0  0  0  0  0
  -10.5620    5.6840    9.7600 C   0  0  0  0  0  0  0  0  0  0  0  0
  -11.5770    5.6820   10.5960 N   0  0  0  0  0  0  0  0  0  0  0  0
  -12.4690    4.7490   10.1080 N   0  0  0  0  0  0  0  0  0  0  0  0
  -12.0160    4.1880    8.9920 N   0  0  0  0  0  0  0  0  0  0  0  0
  -10.8400    4.7900    8.7610 N   0  0  0  0  0  0  0  0  0  0  0  0
   -9.9950    4.4790    7.6090 C   0  0  0  0  0  0  0  0  0  0  0  0
   -8.6630    5.2070    7.7200 C   0  0  0  0  0  0  0  0  0  0  0  0
  -10.7490    4.8610    6.3730 C   0  0  0  0  0  0  0  0  0  0  0  0
  -11.0350    6.2020    6.1170 C   0  0  0  0  0  0  0  0  0  0  0  0
  -11.7370    6.5580    4.9650 C   0  0  0  0  0  0  0  0  0  0  0  0
  -12.1550    5.5730    4.0710 C   0  0  0  0  0  0  0  0  0  0  0  0
  -11.8700    4.2310    4.3270 C   0  0  0  0  0  0  0  0  0  0  0  0
  -11.1660    3.8760    5.4790 C   0  0  0  0  0  0  0  0  0  0  0  0
  -12.0160    7.8660    4.7150 O   0  0  0  0  0  0  0  0  0  0  0  0
   -6.8990    7.6510    9.7710 O   0  0  0  0  0  0  0  0  0  0  0  0
   -6.8879    3.0267    5.4499 N   0  0  0  0  0  0  0  0  0  0  0  0
   -7.3260    2.3512    4.3975 N   0  0  0  0  0  0  0  0  0  0  0  0
   -8.4700    2.9403    4.0028 C   0  0  0  0  0  0  0  0  0  0  0  0
   -9.4463    2.3734    2.6062 S   0  0  0  0  0  0  0  0  0  0  0  0
   -8.6097    3.4439    1.3845 C   0  0  0  0  0  0  0  0  0  0  0  0
   -7.2942    2.8146    0.9221 C   0  0  0  0  0  0  0  0  0  0  0  0
   -6.6152    3.6792   -0.1439 C   0  0  0  0  0  0  0  0  0  0  0  0
   -5.3506    3.0705   -0.5614 N   0  0  0  0  0  0  0  0  0  0  0  0
   -4.0919    3.4547   -0.2275 C   0  0  0  0  0  0  0  0  0  0  0  0
   -3.8381    4.4308    0.5279 O   0  0  0  0  0  0  0  0  0  0  0  0
   -3.1288    2.6810   -0.7820 N   0  0  0  0  0  0  0  0  0  0  0  0
   -3.8183    1.7746   -1.4966 C   0  0  0  0  0  0  0  0  0  0  0  0
   -3.3194    0.7364   -2.2798 C   0  0  0  0  0  0  0  0  0  0  0  0
   -4.2498   -0.0807   -2.9490 C   0  0  0  0  0  0  0  0  0  0  0  0
   -5.6374    0.1599   -2.8226 C   0  0  0  0  0  0  0  0  0  0  0  0
   -6.1093    1.2188   -2.0241 C   0  0  0  0  0  0  0  0  0  0  0  0
   -5.1616    2.0066   -1.3678 C   0  0  0  0  0  0  0  0  0  0  0  0
   -8.7814    3.9921    4.7841 N   0  0  0  0  0  0  0  0  0  0  0  0
   -9.9286    4.8894    4.6562 C   0  0  0  0  0  0  0  0  0  0  0  0
  1  3  4  0
  1 14  4  0
  1  2  1  0
  3  4  4  0
  4  5  4  0
  5  6  4  0
  5 22  1  0
  6  7  1  0
  6 14  4  0
  7  8  1  0
  8  9  4  0
  8 12  4  0
  9 10  4  0
 10 11  4  0
 11 12  4  0
 12 13  1  0
 13 14  1  0
 13 15  1  6
 15 16  4  0
 15 20  4  0
 16 17  4  0
 17 18  4  0
 17 21  1  0
 18 19  4  0
 19 20  4  0
 23 24  4  0
 24 25  4  0
 25 26  1  0
 26 27  1  0
 27 28  1  0
 28 29  1  0
 29 30  1  0
 30 31  4  0
 31 32  2  0
 31 33  4  0
 33 34  4  0
 34 35  4  0
 35 36  4  0
 36 37  4  0
 37 38  4  0
 38 39  4  0
 25 40  4  0
 40 41  1  0
 39 30  4  0
 39 34  4  0
  2 23  4  0
  2 40  4  0
M  END
$$$$

     RDKit          3D

 43 49  0  0  0  0  0  0  0  0999 V2000
   -7.6410    4.9930    6.8080 C   0  0  0  0  0  0  0  0  0  1  0  0
   -7.7310    4.0530    5.7140 C   0  0  0  0  0  0  0  0  0  2  0  0
   -6.4520    5.6300    6.8680 N   0  0  0  0  0  0  0  0  0  0  0  0
   -6.2260    6.5240    7.8670 N   0  0  0  0  0  0  0  0  0  0  0  0
   -7.1930    6.7500    8.7820 C   0  0  0  0  0  0  0  0  0  0  0  0
   -8.4240    6.1170    8.7580 C   0  0  0  0  0  0  0  0  0  0  0  0
   -9.3950    6.3570    9.7450 N   0  0  0  0  0  0  0  0  0  0  0  0
  -10.5620    5.6840    9.7600 C   0  0  0  0  0  0  0  0  0  0  0  0
  -11.5770    5.6820   10.5960 N   0  0  0  0  0  0  0  0  0  0  0  0
  -12.4690    4.7490   10.1080 N   0  0  0  0  0  0  0  0  0  0  0  0
  -12.0160    4.1880    8.9920 N   0  0  0  0  0  0  0  0  0  0  0  0
  -10.8400    4.7900    8.7610 N   0  0  0  0  0  0  0  0  0  0  0  0
   -9.9950    4.4790    7.6090 C   0  0  0  0  0  0  0  0  0  0  0  0
   -8.6630    5.2070    7.7200 C   0  0  0  0  0  0  0  0  0  0  0  0
  -10.7490    4.8610    6.3730 C   0  0  0  0  0  0  0  0  0  0  0  0
  -11.0350    6.2020    6.1170 C   0  0  0  0  0  0  0  0  0  0  0  0
  -11.7370    6.5580    4.9650 C   0  0  0  0  0  0  0  0  0  0  0  0
  -12.1550    5.5730    4.0710 C   0  0  0  0  0  0  0  0  0  0  0  0
  -11.8700    4.2310    4.3270 C   0  0  0  0  0  0  0  0  0  0  0  0
  -11.1660    3.8760    5.4790 C   0  0  0  0  0  0  0  0  0  0  0  0
  -12.0160    7.8660    4.7150 O   0  0  0  0  0  0  0  0  0  0  0  0
   -6.8990    7.6510    9.7710 O   0  0  0  0  0  0  0  0  0  0  0  0
   -6.9255    2.9836    5.5004 N   0  0  0  0  0  0  0  0  0  0  0  0
   -7.3141    2.3287    4.4152 N   0  0  0  0  0  0  0  0  0  0  0  0
   -6.6284    1.1700    3.8976 C   0  0  0  0  0  0  0  0  0  0  0  0
   -7.2193    0.3463    2.9179 C   0  0  0  0  0  0  0  0  0  0  0  0
   -6.5397   -0.7746    2.4308 C   0  0  0  0  0  0  0  0  0  0  0  0
   -5.2690   -1.0905    2.9151 C   0  0  0  0  0  0  0  0  0  0  0  0
   -4.6748   -0.2870    3.8901 C   0  0  0  0  0  0  0  0  0  0  0  0
   -5.3491    0.8350    4.3811 C   0  0  0  0  0  0  0  0  0  0  0  0
   -8.3989    2.9366    3.8869 C   0  0  0  0  0  0  0  0  0  0  0  0
   -8.7230    4.0207    4.6782 C   0  0  0  0  0  0  0  0  0  0  0  0
   -9.7645    5.0330    4.4096 C   0  0  0  0  0  0  0  0  0  0  0  0
   -9.6137    6.2064    4.8425 O   0  0  0  0  0  0  0  0  0  0  0  0
  -10.9290    4.7206    3.6353 N   0  0  0  0  0  0  0  0  0  0  0  0
  -11.4560    3.4165    3.5911 N   0  0  0  0  0  0  0  0  0  0  0  0
  -12.4865    3.0372    2.6648 C   0  0  0  0  0  0  0  0  0  0  0  0
  -12.7123    3.7641    1.4812 C   0  0  0  0  0  0  0  0  0  0  0  0
  -13.7137    3.3662    0.5899 C   0  0  0  0  0  0  0  0  0  0  0  0
  -14.4903    2.2381    0.8647 C   0  0  0  0  0  0  0  0  0  0  0  0
  -14.2627    1.4996    2.0300 C   0  0  0  0  0  0  0  0  0  0  0  0
  -15.2312    0.0771    2.3704 Cl  0  0  0  0  0  0  0  0  0  0  0  0
  -13.2614    1.8951    2.9241 C   0  0  0  0  0  0  0  0  0  0  0  0
  1  3  4  0
  1 14  4  0
  1  2  1  0
  3  4  4  0
  4  5  4  0
  5  6  4  0
  5 22  1  0
  6  7  1  0
  6 14  4  0
  7  8  1  0
  8  9  4  0
  8 12  4  0
  9 10  4  0
 10 11  4  0
 11 12  4  0
 12 13  1  0
 13 14  1  0
 13 15  1  6
 15 16  4  0
 15 20  4  0
 16 17  4  0
 17 18  4  0
 17 21  1  0
 18 19  4  0
 19 20  4  0
 23 24  4  0
 24 25  1  0
 25 26  4  0
 26 27  4  0
 27 28  4  0
 28 29  4  0
 29 30  4  0
 24 31  4  0
 31 32  4  0
 32 33  1  0
 33 34  2  0
 33 35  1  0
 35 36  1  0
 36 37  1  0
 37 38  4  0
 38 39  4  0
 39 40  4  0
 40 41  4  0
 41 42  1  0
 41 43  4  0
 43 37  4  0
 30 25  4  0
  2 23  4  0
  2 32  4  0
M  END
$$$$

     RDKit          3D

 43 49  0  0  0  0  0  0  0  0999 V2000
   -7.6410    4.9930    6.8080 C   0  0  0  0  0  0  0  0  0  1  0  0
   -7.7310    4.0530    5.7140 C   0  0  0  0  0  0  0  0  0  2  0  0
   -6.4520    5.6300    6.8680 N   0  0  0  0  0  0  0  0  0  0  0  0
   -6.2260    6.5240    7.8670 N   0  0  0  0  0  0  0  0  0  0  0  0
   -7.1930    6.7500    8.7820 C   0  0  0  0  0  0  0  0  0  0  0  0
   -8.4240    6.1170    8.7580 C   0  0  0  0  0  0  0  0  0  0  0  0
   -9.3950    6.3570    9.7450 N   0  0  0  0  0  0  0  0  0  0  0  0
  -10.5620    5.6840    9.7600 C   0  0  0  0  0  0  0  0  0  0  0  0
  -11.5770    5.6820   10.5960 N   0  0  0  0  0  0  0  0  0  0  0  0
  -12.4690    4.7490   10.1080 N   0  0  0  0  0  0  0  0  0  0  0  0
  -12.0160    4.1880    8.9920 N   0  0  0  0  0  0  0  0  0  0  0  0
  -10.8400    4.7900    8.7610 N   0  0  0  0  0  0  0  0  0  0  0  0
   -9.9950    4.4790    7.6090 C   0  0  0  0  0  0  0  0  0  0  0  0
   -8.6630    5.2070    7.7200 C   0  0  0  0  0  0  0  0  0  0  0  0
  -10.7490    4.8610    6.3730 C   0  0  0  0  0  0  0  0  0  0  0  0
  -11.0350    6.2020    6.1170 C   0  0  0  0  0  0  0  0  0  0  0  0
  -11.7370    6.5580    4.9650 C   0  0  0  0  0  0  0  0  0  0  0  0
  -12.1550    5.5730    4.0710 C   0  0  0  0  0  0  0  0  0  0  0  0
  -11.8700    4.2310    4.3270 C   0  0  0  0  0  0  0  0  0  0  0  0
  -11.1660    3.8760    5.4790 C   0  0  0  0  0  0  0  0  0  0  0  0
  -12.0160    7.8660    4.7150 O   0  0  0  0  0  0  0  0  0  0  0  0
   -6.8990    7.6510    9.7710 O   0  0  0  0  0  0  0  0  0  0  0  0
   -6.9605    2.9479    5.5518 N   0  0  0  0  0  0  0  0  0  0  0  0
   -7.3734    2.2480    4.5044 N   0  0  0  0  0  0  0  0  0  0  0  0
   -6.7466    1.0212    4.0730 C   0  0  0  0  0  0  0  0  0  0  0  0
   -7.0840    0.4147    2.8453 C   0  0  0  0  0  0  0  0  0  0  0  0
   -6.4671   -0.7760    2.4493 C   0  0  0  0  0  0  0  0  0  0  0  0
   -5.5070   -1.3749    3.2669 C   0  0  0  0  0  0  0  0  0  0  0  0
   -5.1591   -0.7831    4.4825 C   0  0  0  0  0  0  0  0  0  0  0  0
   -5.7722    0.4075    4.8839 C   0  0  0  0  0  0  0  0  0  0  0  0
   -8.4527    2.8522    3.9596 C   0  0  0  0  0  0  0  0  0  0  0  0
   -8.7278    3.9969    4.6801 C   0  0  0  0  0  0  0  0  0  0  0  0
   -9.8239    4.9461    4.4037 C   0  0  0  0  0  0  0  0  0  0  0  0
  -10.8639    4.5210    3.8328 O   0  0  0  0  0  0  0  0  0  0  0  0
   -9.7191    6.3332    4.7638 N   0  0  0  0  0  0  0  0  0  0  0  0
  -10.8228    7.2013    4.6994 N   0  0  0  0  0  0  0  0  0  0  0  0
  -11.6066    7.3795    3.5085 C   0  0  0  0  0  0  0  0  0  0  0  0
  -11.0808    7.0785    2.2391 C   0  0  0  0  0  0  0  0  0  0  0  0
  -11.8511    7.2847    1.0907 C   0  0  0  0  0  0  0  0  0  0  0  0
  -13.1452    7.8018    1.1978 C   0  0  0  0  0  0  0  0  0  0  0  0
  -13.6684    8.1221    2.4543 C   0  0  0  0  0  0  0  0  0  0  0  0
  -15.2928    8.7718    2.5887 Cl  0  0  0  0  0  0  0  0  0  0  0  0
  -12.8992    7.9171    3.6056 C   0  0  0  0  0  0  0  0  0  0  0  0
  1  3  4  0
  1 14  4  0
  1  2  1  0
  3  4  4  0
  4  5  4  0
  5  6  4  0
  5 22  1  0
  6  7  1  0
  6 14  4  0
  7  8  1  0
  8  9  4  0
  8 12  4  0
  9 10  4  0
 10 11  4  0
 11 12  4  0
 12 13  1  0
 13 14  1  0
 13 15  1  6
 15 16  4  0
 15 20  4  0
 16 17  4  0
 17 18  4  0
 17 21  1  0
 18 19  4  0
 19 20  4  0
 23 24  4  0
 24 25  1  0
 25 26  4  0
 26 27  4  0
 27 28  4  0
 28 29  4  0
 29 30  4  0
 24 31  4  0
 31 32  4  0
 32 33  1  0
 33 34  2  0
 33 35  1  0
 35 36  1  0
 36 37  1  0
 37 38  4  0
 38 39  4  0
 39 40  4  0
 40 41  4  0
 41 42  1  0
 41 43  4  0
 43 37  4  0
 30 25  4  0
  2 23  4  0
  2 32  4  0
M  END
$$$$

     RDKit          3D

 29 33  0  0  0  0  0  0  0  0999 V2000
   -7.6410    4.9930    6.8080 C   0  0  0  0  0  0  0  0  0  1  0  0
   -7.7310    4.0530    5.7140 C   0  0  0  0  0  0  0  0  0  2  0  0
   -6.4520    5.6300    6.8680 N   0  0  0  0  0  0  0  0  0  0  0  0
   -6.2260    6.5240    7.8670 N   0  0  0  0  0  0  0  0  0  0  0  0
   -7.1930    6.7500    8.7820 C   0  0  0  0  0  0  0  0  0  0  0  0
   -8.4240    6.1170    8.7580 C   0  0  0  0  0  0  0  0  0  0  0  0
   -9.3950    6.3570    9.7450 N   0  0  0  0  0  0  0  0  0  0  0  0
  -10.5620    5.6840    9.7600 C   0  0  0  0  0  0  0  0  0  0  0  0
  -11.5770    5.6820   10.5960 N   0  0  0  0  0  0  0  0  0  0  0  0
  -12.4690    4.7490   10.1080 N   0  0  0  0  0  0  0  0  0  0  0  0
  -12.0160    4.1880    8.9920 N   0  0  0  0  0  0  0  0  0  0  0  0
  -10.8400    4.7900    8.7610 N   0  0  0  0  0  0  0  0  0  0  0  0
   -9.9950    4.4790    7.6090 C   0  0  0  0  0  0  0  0  0  0  0  0
   -8.6630    5.2070    7.7200 C   0  0  0  0  0  0  0  0  0  0  0  0
  -10.7490    4.8610    6.3730 C   0  0  0  0  0  0  0  0  0  0  0  0
  -11.0350    6.2020    6.1170 C   0  0  0  0  0  0  0  0  0  0  0  0
  -11.7370    6.5580    4.9650 C   0  0  0  0  0  0  0  0  0  0  0  0
  -12.1550    5.5730    4.0710 C   0  0  0  0  0  0  0  0  0  0  0  0
  -11.8700    4.2310    4.3270 C   0  0  0  0  0  0  0  0  0  0  0  0
  -11.1660    3.8760    5.4790 C   0  0  0  0  0  0  0  0  0  0  0  0
  -12.0160    7.8660    4.7150 O   0  0  0  0  0  0  0  0  0  0  0  0
   -6.8990    7.6510    9.7710 O   0  0  0  0  0  0  0  0  0  0  0  0
   -6.7934    3.0811    5.3627 C   0  0  0  0  0  0  0  0  0  0  0  0
   -7.0015    2.0847    4.4045 C   0  0  0  0  0  0  0  0  0  0  0  0
   -5.7178    0.9514    4.0237 Cl  0  0  0  0  0  0  0  0  0  0  0  0
   -8.2354    1.9840    3.7593 C   0  0  0  0  0  0  0  0  0  0  0  0
   -9.2556    2.8893    4.0569 C   0  0  0  0  0  0  0  0  0  0  0  0
   -9.0545    3.9041    5.0003 C   0  0  0  0  0  0  0  0  0  0  0  0
  -10.0832    4.8265    5.2017 O   0  0  0  0  0  0  0  0  0  0  0  0
  1  3  4  0
  1 14  4  0
  1  2  1  0
  3  4  4  0
  4  5  4  0
  5  6  4  0
  5 22  1  0
  6  7  1  0
  6 14  4  0
  7  8  1  0
  8  9  4  0
  8 12  4  0
  9 10  4  0
 10 11  4  0
 11 12  4  0
 12 13  1  0
 13 14  1  0
 13 15  1  6
 15 16  4  0
 15 20  4  0
 16 17  4  0
 17 18  4  0
 17 21  1  0
 18 19  4  0
 19 20  4  0
 23 24  4  0
 24 25  1  0
 24 26  4  0
 26 27  4  0
 27 28  4  0
 28 29  1  0
  2 23  4  0
  2 28  4  0
M  END
$$$$

     RDKit          3D

 43 50  0  0  0  0  0  0  0  0999 V2000
   -7.6410    4.9930    6.8080 C   0  0  0  0  0  0  0  0  0  1  0  0
   -7.7310    4.0530    5.7140 C   0  0  0  0  0  0  0  0  0  2  0  0
   -6.4520    5.6300    6.8680 N   0  0  0  0  0  0  0  0  0  0  0  0
   -6.2260    6.5240    7.8670 N   0  0  0  0  0  0  0  0  0  0  0  0
   -7.1930    6.7500    8.7820 C   0  0  0  0  0  0  0  0  0  0  0  0
   -8.4240    6.1170    8.7580 C   0  0  0  0  0  0  0  0  0  0  0  0
   -9.3950    6.3570    9.7450 N   0  0  0  0  0  0  0  0  0  0  0  0
  -10.5620    5.6840    9.7600 C   0  0  0  0  0  0  0  0  0  0  0  0
  -11.5770    5.6820   10.5960 N   0  0  0  0  0  0  0  0  0  0  0  0
  -12.4690    4.7490   10.1080 N   0  0  0  0  0  0  0  0  0  0  0  0
  -12.0160    4.1880    8.9920 N   0  0  0  0  0  0  0  0  0  0  0  0
  -10.8400    4.7900    8.7610 N   0  0  0  0  0  0  0  0  0  0  0  0
   -9.9950    4.4790    7.6090 C   0  0  0  0  0  0  0  0  0  0  0  0
   -8.6630    5.2070    7.7200 C   0  0  0  0  0  0  0  0  0  0  0  0
  -10.7490    4.8610    6.3730 C   0  0  0  0  0  0  0  0  0  0  0  0
  -11.0350    6.2020    6.1170 C   0  0  0  0  0  0  0  0  0  0  0  0
  -11.7370    6.5580    4.9650 C   0  0  0  0  0  0  0  0  0  0  0  0
  -12.1550    5.5730    4.0710 C   0  0  0  0  0  0  0  0  0  0  0  0
  -11.8700    4.2310    4.3270 C   0  0  0  0  0  0  0  0  0  0  0  0
  -11.1660    3.8760    5.4790 C   0  0  0  0  0  0  0  0  0  0  0  0
  -12.0160    7.8660    4.7150 O   0  0  0  0  0  0  0  0  0  0  0  0
   -6.8990    7.6510    9.7710 O   0  0  0  0  0  0  0  0  0  0  0  0
   -6.8953    2.9411    5.5103 C   0  0  0  0  0  0  0  0  0  0  0  0
   -7.4142    1.9811    4.2200 S   0  0  0  0  0  0  0  0  0  0  0  0
   -8.7576    2.9208    3.8809 C   0  0  0  0  0  0  0  0  0  0  0  0
   -9.6514    2.7185    2.8890 N   0  0  0  0  0  0  0  0  0  0  0  0
  -10.6740    3.6013    2.7300 C   0  0  0  0  0  0  0  0  0  0  0  0
  -10.7968    4.6938    3.5549 N   0  0  0  0  0  0  0  0  0  0  0  0
  -11.8905    5.6452    3.3044 C   0  0  0  0  0  0  0  0  0  0  0  0
  -11.4599    6.6634    2.2844 C   0  0  0  0  0  0  0  0  0  0  0  0
  -10.6067    7.5257    2.6240 O   0  0  0  0  0  0  0  0  0  0  0  0
  -12.0006    6.6659    0.9480 N   0  0  0  0  0  0  0  0  0  0  0  0
  -13.2825    6.0632    0.5689 C   0  0  0  0  0  0  0  0  0  0  0  0
  -13.5629    6.5109   -0.8843 C   0  0  0  0  0  0  0  0  0  0  0  0
  -12.3602    7.3105   -1.2354 C   0  0  0  0  0  0  0  0  0  0  0  0
  -12.0687    7.9197   -2.4570 C   0  0  0  0  0  0  0  0  0  0  0  0
  -10.8495    8.6008   -2.5925 C   0  0  0  0  0  0  0  0  0  0  0  0
   -9.9447    8.6513   -1.5165 C   0  0  0  0  0  0  0  0  0  0  0  0
  -10.2583    8.0296   -0.2970 C   0  0  0  0  0  0  0  0  0  0  0  0
  -11.4933    7.3758   -0.1767 C   0  0  0  0  0  0  0  0  0  0  0  0
   -9.8735    4.9191    4.5511 C   0  0  0  0  0  0  0  0  0  0  0  0
   -9.9434    5.9565    5.2650 O   0  0  0  0  0  0  0  0  0  0  0  0
   -8.8373    3.9927    4.7441 C   0  0  0  0  0  0  0  0  0  0  0  0
  1  3  4  0
  1 14  4  0
  1  2  1  0
  3  4  4  0
  4  5  4  0
  5  6  4  0
  5 22  1  0
  6  7  1  0
  6 14  4  0
  7  8  1  0
  8  9  4  0
  8 12  4  0
  9 10  4  0
 10 11  4  0
 11 12  4  0
 12 13  1  0
 13 14  1  0
 13 15  1  6
 15 16  4  0
 15 20  4  0
 16 17  4  0
 17 18  4  0
 17 21  1  0
 18 19  4  0
 19 20  4  0
 23 24  4  0
 24 25  4  0
 25 26  4  0
 26 27  4  0
 27 28  4  0
 28 29  1  0
 29 30  1  0
 30 31  2  0
 30 32  1  0
 32 33  1  0
 33 34  1  0
 34 35  1  0
 35 36  4  0
 36 37  4  0
 37 38  4  0
 38 39  4  0
 39 40  4  0
 28 41  4  0
 41 42  2  0
 41 43  4  0
 43 25  4  0
 40 32  1  0
 40 35  4  0
  2 23  4  0
  2 43  4  0
M  END
$$$$

     RDKit          3D

 29 33  0  0  0  0  0  0  0  0999 V2000
   -7.6410    4.9930    6.8080 C   0  0  0  0  0  0  0  0  0  1  0  0
   -7.7310    4.0530    5.7140 C   0  0  0  0  0  0  0  0  0  2  0  0
   -6.4520    5.6300    6.8680 N   0  0  0  0  0  0  0  0  0  0  0  0
   -6.2260    6.5240    7.8670 N   0  0  0  0  0  0  0  0  0  0  0  0
   -7.1930    6.7500    8.7820 C   0  0  0  0  0  0  0  0  0  0  0  0
   -8.4240    6.1170    8.7580 C   0  0  0  0  0  0  0  0  0  0  0  0
   -9.3950    6.3570    9.7450 N   0  0  0  0  0  0  0  0  0  0  0  0
  -10.5620    5.6840    9.7600 C   0  0  0  0  0  0  0  0  0  0  0  0
  -11.5770    5.6820   10.5960 N   0  0  0  0  0  0  0  0  0  0  0  0
  -12.4690    4.7490   10.1080 N   0  0  0  0  0  0  0  0  0  0  0  0
  -12.0160    4.1880    8.9920 N   0  0  0  0  0  0  0  0  0  0  0  0
  -10.8400    4.7900    8.7610 N   0  0  0  0  0  0  0  0  0  0  0  0
   -9.9950    4.4790    7.6090 C   0  0  0  0  0  0  0  0  0  0  0  0
   -8.6630    5.2070    7.7200 C   0  0  0  0  0  0  0  0  0  0  0  0
  -10.7490    4.8610    6.3730 C   0  0  0  0  0  0  0  0  0  0  0  0
  -11.0350    6.2020    6.1170 C   0  0  0  0  0  0  0  0  0  0  0  0
  -11.7370    6.5580    4.9650 C   0  0  0  0  0  0  0  0  0  0  0  0
  -12.1550    5.5730    4.0710 C   0  0  0  0  0  0  0  0  0  0  0  0
  -11.8700    4.2310    4.3270 C   0  0  0  0  0  0  0  0  0  0  0  0
  -11.1660    3.8760    5.4790 C   0  0  0  0  0  0  0  0  0  0  0  0
  -12.0160    7.8660    4.7150 O   0  0  0  0  0  0  0  0  0  0  0  0
   -6.8990    7.6510    9.7710 O   0  0  0  0  0  0  0  0  0  0  0  0
   -6.8460    3.1244    5.3197 N   0  0  0  0  0  0  0  0  0  0  0  0
   -7.3167    2.4476    4.2835 N   0  0  0  0  0  0  0  0  0  0  0  0
   -6.5551    1.4221    3.5794 C   0  0  0  0  0  0  0  0  0  0  0  0
   -8.5543    2.8884    3.9732 C   0  0  0  0  0  0  0  0  0  0  0  0
   -9.3451    2.4613    2.7741 C   0  0  0  0  0  0  0  0  0  0  0  0
   -8.8858    3.9038    4.8491 C   0  0  0  0  0  0  0  0  0  0  0  0
  -10.2755    4.9740    4.7430 Cl  0  0  0  0  0  0  0  0  0  0  0  0
  1  3  4  0
  1 14  4  0
  1  2  1  0
  3  4  4  0
  4  5  4  0
  5  6  4  0
  5 22  1  0
  6  7  1  0
  6 14  4  0
  7  8  1  0
  8  9  4  0
  8 12  4  0
  9 10  4  0
 10 11  4  0
 11 12  4  0
 12 13  1  0
 13 14  1  0
 13 15  1  6
 15 16  4  0
 15 20  4  0
 16 17  4  0
 17 18  4  0
 17 21  1  0
 18 19  4  0
 19 20  4  0
 23 24  4  0
 24 25  1  0
 24 26  4  0
 26 27  1  0
 26 28  4  0
 28 29  1  0
  2 23  4  0
  2 28  4  0
M  END
$$$$

     RDKit          3D

 45 51  0  0  0  0  0  0  0  0999 V2000
   -7.6410    4.9930    6.8080 C   0  0  0  0  0  0  0  0  0  1  0  0
   -7.7310    4.0530    5.7140 C   0  0  0  0  0  0  0  0  0  2  0  0
   -6.4520    5.6300    6.8680 N   0  0  0  0  0  0  0  0  0  0  0  0
   -6.2260    6.5240    7.8670 N   0  0  0  0  0  0  0  0  0  0  0  0
   -7.1930    6.7500    8.7820 C   0  0  0  0  0  0  0  0  0  0  0  0
   -8.4240    6.1170    8.7580 C   0  0  0  0  0  0  0  0  0  0  0  0
   -9.3950    6.3570    9.7450 N   0  0  0  0  0  0  0  0  0  0  0  0
  -10.5620    5.6840    9.7600 C   0  0  0  0  0  0  0  0  0  0  0  0
  -11.5770    5.6820   10.5960 N   0  0  0  0  0  0  0  0  0  0  0  0
  -12.4690    4.7490   10.1080 N   0  0  0  0  0  0  0  0  0  0  0  0
  -12.0160    4.1880    8.9920 N   0  0  0  0  0  0  0  0  0  0  0  0
  -10.8400    4.7900    8.7610 N   0  0  0  0  0  0  0  0  0  0  0  0
   -9.9950    4.4790    7.6090 C   0  0  0  0  0  0  0  0  0  0  0  0
   -8.6630    5.2070    7.7200 C   0  0  0  0  0  0  0  0  0  0  0  0
  -10.7490    4.8610    6.3730 C   0  0  0  0  0  0  0  0  0  0  0  0
  -11.0350    6.2020    6.1170 C   0  0  0  0  0  0  0  0  0  0  0  0
  -11.7370    6.5580    4.9650 C   0  0  0  0  0  0  0  0  0  0  0  0
  -12.1550    5.5730    4.0710 C   0  0  0  0  0  0  0  0  0  0  0  0
  -11.8700    4.2310    4.3270 C   0  0  0  0  0  0  0  0  0  0  0  0
  -11.1660    3.8760    5.4790 C   0  0  0  0  0  0  0  0  0  0  0  0
  -12.0160    7.8660    4.7150 O   0  0  0  0  0  0  0  0  0  0  0  0
   -6.8990    7.6510    9.7710 O   0  0  0  0  0  0  0  0  0  0  0  0
   -6.7881    3.2042    5.2543 N   0  0  0  0  0  0  0  0  0  0  0  0
   -7.2802    2.4582    4.2729 N   0  0  0  0  0  0  0  0  0  0  0  0
   -8.5695    2.8151    4.1183 C   0  0  0  0  0  0  0  0  0  0  0  0
   -9.6521    2.1290    2.8649 S   0  0  0  0  0  0  0  0  0  0  0  0
  -10.2478    0.7918    3.9492 C   0  0  0  0  0  0  0  0  0  0  0  0
  -11.3532    0.0488    3.2634 C   0  0  0  0  0  0  0  0  0  0  0  0
  -12.5006    0.5719    3.2275 O   0  0  0  0  0  0  0  0  0  0  0  0
  -11.1346   -1.2457    2.6692 N   0  0  0  0  0  0  0  0  0  0  0  0
  -12.2797   -2.1539    2.5050 C   0  0  0  0  0  0  0  0  0  0  0  0
  -11.8252   -3.6151    2.5699 C   0  0  0  0  0  0  0  0  0  0  0  0
  -10.6571   -3.8088    1.7043 N   0  0  0  0  0  0  0  0  0  0  0  0
  -10.7208   -4.6670    0.5491 C   0  0  0  0  0  0  0  0  0  0  0  0
  -10.1117   -4.3392   -0.5067 O   0  0  0  0  0  0  0  0  0  0  0  0
  -11.4902   -5.8830    0.5752 N   0  0  0  0  0  0  0  0  0  0  0  0
  -11.3426   -6.8163    1.6968 C   0  0  0  0  0  0  0  0  0  0  0  0
  -12.6226   -7.6446    1.8430 C   0  0  0  0  0  0  0  0  0  0  0  0
  -12.9619   -8.2633    0.6157 O   0  0  0  0  0  0  0  0  0  0  0  0
  -13.2818   -7.2759   -0.3473 C   0  0  0  0  0  0  0  0  0  0  0  0
  -12.0598   -6.4073   -0.6675 C   0  0  0  0  0  0  0  0  0  0  0  0
   -9.5057   -2.9318    1.9304 C   0  0  0  0  0  0  0  0  0  0  0  0
   -9.9511   -1.4740    1.8260 C   0  0  0  0  0  0  0  0  0  0  0  0
   -8.9143    3.7792    4.9883 N   0  0  0  0  0  0  0  0  0  0  0  0
  -10.1129    4.5127    5.0041 N   0  0  0  0  0  0  0  0  0  0  0  0
  1  3  4  0
  1 14  4  0
  1  2  1  0
  3  4  4  0
  4  5  4  0
  5  6  4  0
  5 22  1  0
  6  7  1  0
  6 14  4  0
  7  8  1  0
  8  9  4  0
  8 12  4  0
  9 10  4  0
 10 11  4  0
 11 12  4  0
 12 13  1  0
 13 14  1  0
 13 15  1  6
 15 16  4  0
 15 20  4  0
 16 17  4  0
 17 18  4  0
 17 21  1  0
 18 19  4  0
 19 20  4  0
 23 24  4  0
 24 25  4  0
 25 26  1  0
 26 27  1  0
 27 28  1  0
 28 29  2  0
 28 30  1  0
 30 31  1  0
 31 32  1  0
 32 33  1  0
 33 34  1  0
 34 35  2  0
 34 36  1  0
 36 37  1  0
 37 38  1  0
 38 39  1  0
 39 40  1  0
 40 41  1  0
 33 42  1  0
 42 43  1  0
 25 44  4  0
 44 45  1  0
 43 30  1  0
 41 36  1  0
  2 23  4  0
  2 44  4  0
M  END
$$$$

     RDKit          3D

 45 51  0  0  0  0  0  0  0  0999 V2000
   -7.6410    4.9930    6.8080 C   0  0  0  0  0  0  0  0  0  1  0  0
   -7.7310    4.0530    5.7140 C   0  0  0  0  0  0  0  0  0  2  0  0
   -6.4520    5.6300    6.8680 N   0  0  0  0  0  0  0  0  0  0  0  0
   -6.2260    6.5240    7.8670 N   0  0  0  0  0  0  0  0  0  0  0  0
   -7.1930    6.7500    8.7820 C   0  0  0  0  0  0  0  0  0  0  0  0
   -8.4240    6.1170    8.7580 C   0  0  0  0  0  0  0  0  0  0  0  0
   -9.3950    6.3570    9.7450 N   0  0  0  0  0  0  0  0  0  0  0  0
  -10.5620    5.6840    9.7600 C   0  0  0  0  0  0  0  0  0  0  0  0
  -11.5770    5.6820   10.5960 N   0  0  0  0  0  0  0  0  0  0  0  0
  -12.4690    4.7490   10.1080 N   0  0  0  0  0  0  0  0  0  0  0  0
  -12.0160    4.1880    8.9920 N   0  0  0  0  0  0  0  0  0  0  0  0
  -10.8400    4.7900    8.7610 N   0  0  0  0  0  0  0  0  0  0  0  0
   -9.9950    4.4790    7.6090 C   0  0  0  0  0  0  0  0  0  0  0  0
   -8.6630    5.2070    7.7200 C   0  0  0  0  0  0  0  0  0  0  0  0
  -10.7490    4.8610    6.3730 C   0  0  0  0  0  0  0  0  0  0  0  0
  -11.0350    6.2020    6.1170 C   0  0  0  0  0  0  0  0  0  0  0  0
  -11.7370    6.5580    4.9650 C   0  0  0  0  0  0  0  0  0  0  0  0
  -12.1550    5.5730    4.0710 C   0  0  0  0  0  0  0  0  0  0  0  0
  -11.8700    4.2310    4.3270 C   0  0  0  0  0  0  0  0  0  0  0  0
  -11.1660    3.8760    5.4790 C   0  0  0  0  0  0  0  0  0  0  0  0
  -12.0160    7.8660    4.7150 O   0  0  0  0  0  0  0  0  0  0  0  0
   -6.8990    7.6510    9.7710 O   0  0  0  0  0  0  0  0  0  0  0  0
   -6.7858    3.2052    5.2561 N   0  0  0  0  0  0  0  0  0  0  0  0
   -7.2724    2.4652    4.2683 N   0  0  0  0  0  0  0  0  0  0  0  0
   -8.5601    2.8263    4.1064 C   0  0  0  0  0  0  0  0  0  0  0  0
   -9.6318    2.1500    2.8361 S   0  0  0  0  0  0  0  0  0  0  0  0
   -9.2978    3.4816    1.6273 C   0  0  0  0  0  0  0  0  0  0  0  0
   -7.9108    3.3694    1.0562 C   0  0  0  0  0  0  0  0  0  0  0  0
   -7.0061    4.0982    1.5493 O   0  0  0  0  0  0  0  0  0  0  0  0
   -7.6082    2.5065   -0.0641 N   0  0  0  0  0  0  0  0  0  0  0  0
   -6.3251    2.6499   -0.7704 C   0  0  0  0  0  0  0  0  0  0  0  0
   -6.5330    2.4852   -2.2756 C   0  0  0  0  0  0  0  0  0  0  0  0
   -7.3079    1.2710   -2.5400 N   0  0  0  0  0  0  0  0  0  0  0  0
   -6.8008    0.2529   -3.4206 C   0  0  0  0  0  0  0  0  0  0  0  0
   -5.5805   -0.0578   -3.3670 O   0  0  0  0  0  0  0  0  0  0  0  0
   -7.6604   -0.4022   -4.3743 N   0  0  0  0  0  0  0  0  0  0  0  0
   -8.8403    0.2773   -4.9186 C   0  0  0  0  0  0  0  0  0  0  0  0
   -9.0568   -0.1517   -6.3735 C   0  0  0  0  0  0  0  0  0  0  0  0
   -9.0788   -1.5619   -6.4837 O   0  0  0  0  0  0  0  0  0  0  0  0
   -7.8092   -2.0873   -6.1479 C   0  0  0  0  0  0  0  0  0  0  0  0
   -7.4835   -1.8251   -4.6740 C   0  0  0  0  0  0  0  0  0  0  0  0
   -8.5869    1.1044   -1.8441 C   0  0  0  0  0  0  0  0  0  0  0  0
   -8.3908    1.2892   -0.3374 C   0  0  0  0  0  0  0  0  0  0  0  0
   -8.9105    3.7824    4.9833 N   0  0  0  0  0  0  0  0  0  0  0  0
  -10.1087    4.5163    4.9986 N   0  0  0  0  0  0  0  0  0  0  0  0
  1  3  4  0
  1 14  4  0
  1  2  1  0
  3  4  4  0
  4  5  4  0
  5  6  4  0
  5 22  1  0
  6  7  1  0
  6 14  4  0
  7  8  1  0
  8  9  4  0
  8 12  4  0
  9 10  4  0
 10 11  4  0
 11 12  4  0
 12 13  1  0
 13 14  1  0
 13 15  1  6
 15 16  4  0
 15 20  4  0
 16 17  4  0
 17 18  4  0
 17 21  1  0
 18 19  4  0
 19 20  4  0
 23 24  4  0
 24 25  4  0
 25 26  1  0
 26 27  1  0
 27 28  1  0
 28 29  2  0
 28 30  1  0
 30 31  1  0
 31 32  1  0
 32 33  1  0
 33 34  1  0
 34 35  2  0
 34 36  1  0
 36 37  1  0
 37 38  1  0
 38 39  1  0
 39 40  1  0
 40 41  1  0
 33 42  1  0
 42 43  1  0
 25 44  4  0
 44 45  1  0
 43 30  1  0
 41 36  1  0
  2 23  4  0
  2 44  4  0
M  END
$$$$

     RDKit          3D

 45 51  0  0  0  0  0  0  0  0999 V2000
   -7.6410    4.9930    6.8080 C   0  0  0  0  0  0  0  0  0  1  0  0
   -7.7310    4.0530    5.7140 C   0  0  0  0  0  0  0  0  0  2  0  0
   -6.4520    5.6300    6.8680 N   0  0  0  0  0  0  0  0  0  0  0  0
   -6.2260    6.5240    7.8670 N   0  0  0  0  0  0  0  0  0  0  0  0
   -7.1930    6.7500    8.7820 C   0  0  0  0  0  0  0  0  0  0  0  0
   -8.4240    6.1170    8.7580 C   0  0  0  0  0  0  0  0  0  0  0  0
   -9.3950    6.3570    9.7450 N   0  0  0  0  0  0  0  0  0  0  0  0
  -10.5620    5.6840    9.7600 C   0  0  0  0  0  0  0  0  0  0  0  0
  -11.5770    5.6820   10.5960 N   0  0  0  0  0  0  0  0  0  0  0  0
  -12.4690    4.7490   10.1080 N   0  0  0  0  0  0  0  0  0  0  0  0
  -12.0160    4.1880    8.9920 N   0  0  0  0  0  0  0  0  0  0  0  0
  -10.8400    4.7900    8.7610 N   0  0  0  0  0  0  0  0  0  0  0  0
   -9.9950    4.4790    7.6090 C   0  0  0  0  0  0  0  0  0  0  0  0
   -8.6630    5.2070    7.7200 C   0  0  0  0  0  0  0  0  0  0  0  0
  -10.7490    4.8610    6.3730 C   0  0  0  0  0  0  0  0  0  0  0  0
  -11.0350    6.2020    6.1170 C   0  0  0  0  0  0  0  0  0  0  0  0
  -11.7370    6.5580    4.9650 C   0  0  0  0  0  0  0  0  0  0  0  0
  -12.1550    5.5730    4.0710 C   0  0  0  0  0  0  0  0  0  0  0  0
  -11.8700    4.2310    4.3270 C   0  0  0  0  0  0  0  0  0  0  0  0
  -11.1660    3.8760    5.4790 C   0  0  0  0  0  0  0  0  0  0  0  0
  -12.0160    7.8660    4.7150 O   0  0  0  0  0  0  0  0  0  0  0  0
   -6.8990    7.6510    9.7710 O   0  0  0  0  0  0  0  0  0  0  0  0
   -6.8182    3.1405    5.3141 N   0  0  0  0  0  0  0  0  0  0  0  0
   -7.3077    2.4083    4.3195 N   0  0  0  0  0  0  0  0  0  0  0  0
   -8.5649    2.8395    4.0983 C   0  0  0  0  0  0  0  0  0  0  0  0
   -9.6297    2.1972    2.8058 S   0  0  0  0  0  0  0  0  0  0  0  0
  -10.4085    0.9559    3.8914 C   0  0  0  0  0  0  0  0  0  0  0  0
  -11.6530    0.4268    3.2379 C   0  0  0  0  0  0  0  0  0  0  0  0
  -12.7677    0.7554    3.7291 O   0  0  0  0  0  0  0  0  0  0  0  0
  -11.6016   -0.4195    2.0658 N   0  0  0  0  0  0  0  0  0  0  0  0
  -10.3607   -1.1345    1.7102 C   0  0  0  0  0  0  0  0  0  0  0  0
  -10.5003   -1.8902    0.3827 C   0  0  0  0  0  0  0  0  0  0  0  0
  -11.7619   -2.6358    0.3656 N   0  0  0  0  0  0  0  0  0  0  0  0
  -11.7606   -4.0412    0.0861 C   0  0  0  0  0  0  0  0  0  0  0  0
  -11.8507   -4.8531    1.0478 O   0  0  0  0  0  0  0  0  0  0  0  0
  -11.6850   -4.5272   -1.2705 N   0  0  0  0  0  0  0  0  0  0  0  0
  -11.8527   -5.9704   -1.5096 C   0  0  0  0  0  0  0  0  0  0  0  0
  -11.4401   -6.3591   -2.9328 C   0  0  0  0  0  0  0  0  0  0  0  0
  -12.0048   -5.4750   -3.8780 O   0  0  0  0  0  0  0  0  0  0  0  0
  -11.4173   -4.2023   -3.7207 C   0  0  0  0  0  0  0  0  0  0  0  0
  -11.8229   -3.5724   -2.3838 C   0  0  0  0  0  0  0  0  0  0  0  0
  -13.0097   -2.0037    0.8035 C   0  0  0  0  0  0  0  0  0  0  0  0
  -12.7838   -0.5387    1.1923 C   0  0  0  0  0  0  0  0  0  0  0  0
   -8.8922    3.8355    4.9395 N   0  0  0  0  0  0  0  0  0  0  0  0
  -10.0608    4.6177    4.9152 N   0  0  0  0  0  0  0  0  0  0  0  0
  1  3  4  0
  1 14  4  0
  1  2  1  0
  3  4  4  0
  4  5  4  0
  5  6  4  0
  5 22  1  0
  6  7  1  0
  6 14  4  0
  7  8  1  0
  8  9  4  0
  8 12  4  0
  9 10  4  0
 10 11  4  0
 11 12  4  0
 12 13  1  0
 13 14  1  0
 13 15  1  6
 15 16  4  0
 15 20  4  0
 16 17  4  0
 17 18  4  0
 17 21  1  0
 18 19  4  0
 19 20  4  0
 23 24  4  0
 24 25  4  0
 25 26  1  0
 26 27  1  0
 27 28  1  0
 28 29  2  0
 28 30  1  0
 30 31  1  0
 31 32  1  0
 32 33  1  0
 33 34  1  0
 34 35  2  0
 34 36  1  0
 36 37  1  0
 37 38  1  0
 38 39  1  0
 39 40  1  0
 40 41  1  0
 33 42  1  0
 42 43  1  0
 25 44  4  0
 44 45  1  0
 43 30  1  0
 41 36  1  0
  2 23  4  0
  2 44  4  0
M  END
$$$$

     RDKit          3D

 45 51  0  0  0  0  0  0  0  0999 V2000
   -7.6410    4.9930    6.8080 C   0  0  0  0  0  0  0  0  0  1  0  0
   -7.7310    4.0530    5.7140 C   0  0  0  0  0  0  0  0  0  2  0  0
   -6.4520    5.6300    6.8680 N   0  0  0  0  0  0  0  0  0  0  0  0
   -6.2260    6.5240    7.8670 N   0  0  0  0  0  0  0  0  0  0  0  0
   -7.1930    6.7500    8.7820 C   0  0  0  0  0  0  0  0  0  0  0  0
   -8.4240    6.1170    8.7580 C   0  0  0  0  0  0  0  0  0  0  0  0
   -9.3950    6.3570    9.7450 N   0  0  0  0  0  0  0  0  0  0  0  0
  -10.5620    5.6840    9.7600 C   0  0  0  0  0  0  0  0  0  0  0  0
  -11.5770    5.6820   10.5960 N   0  0  0  0  0  0  0  0  0  0  0  0
  -12.4690    4.7490   10.1080 N   0  0  0  0  0  0  0  0  0  0  0  0
  -12.0160    4.1880    8.9920 N   0  0  0  0  0  0  0  0  0  0  0  0
  -10.8400    4.7900    8.7610 N   0  0  0  0  0  0  0  0  0  0  0  0
   -9.9950    4.4790    7.6090 C   0  0  0  0  0  0  0  0  0  0  0  0
   -8.6630    5.2070    7.7200 C   0  0  0  0  0  0  0  0  0  0  0  0
  -10.7490    4.8610    6.3730 C   0  0  0  0  0  0  0  0  0  0  0  0
  -11.0350    6.2020    6.1170 C   0  0  0  0  0  0  0  0  0  0  0  0
  -11.7370    6.5580    4.9650 C   0  0  0  0  0  0  0  0  0  0  0  0
  -12.1550    5.5730    4.0710 C   0  0  0  0  0  0  0  0  0  0  0  0
  -11.8700    4.2310    4.3270 C   0  0  0  0  0  0  0  0  0  0  0  0
  -11.1660    3.8760    5.4790 C   0  0  0  0  0  0  0  0  0  0  0  0
  -12.0160    7.8660    4.7150 O   0  0  0  0  0  0  0  0  0  0  0  0
   -6.8990    7.6510    9.7710 O   0  0  0  0  0  0  0  0  0  0  0  0
   -6.7921    3.1941    5.2663 N   0  0  0  0  0  0  0  0  0  0  0  0
   -7.2921    2.4248    4.3072 N   0  0  0  0  0  0  0  0  0  0  0  0
   -8.5822    2.7791    4.1524 C   0  0  0  0  0  0  0  0  0  0  0  0
   -9.6828    2.0334    2.9463 S   0  0  0  0  0  0  0  0  0  0  0  0
   -9.3333    3.2533    1.6312 C   0  0  0  0  0  0  0  0  0  0  0  0
   -7.9255    3.1219    1.1119 C   0  0  0  0  0  0  0  0  0  0  0  0
   -7.1071    4.0392    1.3927 O   0  0  0  0  0  0  0  0  0  0  0  0
   -7.5035    2.0010    0.2968 N   0  0  0  0  0  0  0  0  0  0  0  0
   -6.0880    1.8560   -0.0910 C   0  0  0  0  0  0  0  0  0  0  0  0
   -5.9716    1.5315   -1.5884 C   0  0  0  0  0  0  0  0  0  0  0  0
   -6.9712    0.5365   -2.0107 N   0  0  0  0  0  0  0  0  0  0  0  0
   -7.3184    0.4171   -3.4049 C   0  0  0  0  0  0  0  0  0  0  0  0
   -8.5286    0.2785   -3.7320 O   0  0  0  0  0  0  0  0  0  0  0  0
   -6.3115    0.4583   -4.4348 N   0  0  0  0  0  0  0  0  0  0  0  0
   -6.5819    1.1117   -5.7185 C   0  0  0  0  0  0  0  0  0  0  0  0
   -6.0017    0.2643   -6.8557 C   0  0  0  0  0  0  0  0  0  0  0  0
   -4.6367   -0.0276   -6.6194 O   0  0  0  0  0  0  0  0  0  0  0  0
   -4.5112   -0.8389   -5.4659 C   0  0  0  0  0  0  0  0  0  0  0  0
   -4.9679   -0.0819   -4.2146 C   0  0  0  0  0  0  0  0  0  0  0  0
   -7.8092   -0.1046   -0.9907 C   0  0  0  0  0  0  0  0  0  0  0  0
   -8.4723    0.9721   -0.1284 C   0  0  0  0  0  0  0  0  0  0  0  0
   -8.9207    3.7616    5.0038 N   0  0  0  0  0  0  0  0  0  0  0  0
  -10.1216    4.4907    5.0199 N   0  0  0  0  0  0  0  0  0  0  0  0
  1  3  4  0
  1 14  4  0
  1  2  1  0
  3  4  4  0
  4  5  4  0
  5  6  4  0
  5 22  1  0
  6  7  1  0
  6 14  4  0
  7  8  1  0
  8  9  4  0
  8 12  4  0
  9 10  4  0
 10 11  4  0
 11 12  4  0
 12 13  1  0
 13 14  1  0
 13 15  1  6
 15 16  4  0
 15 20  4  0
 16 17  4  0
 17 18  4  0
 17 21  1  0
 18 19  4  0
 19 20  4  0
 23 24  4  0
 24 25  4  0
 25 26  1  0
 26 27  1  0
 27 28  1  0
 28 29  2  0
 28 30  1  0
 30 31  1  0
 31 32  1  0
 32 33  1  0
 33 34  1  0
 34 35  2  0
 34 36  1  0
 36 37  1  0
 37 38  1  0
 38 39  1  0
 39 40  1  0
 40 41  1  0
 33 42  1  0
 42 43  1  0
 25 44  4  0
 44 45  1  0
 43 30  1  0
 41 36  1  0
  2 23  4  0
  2 44  4  0
M  END
$$$$

     RDKit          3D

 45 51  0  0  0  0  0  0  0  0999 V2000
   -7.6410    4.9930    6.8080 C   0  0  0  0  0  0  0  0  0  1  0  0
   -7.7310    4.0530    5.7140 C   0  0  0  0  0  0  0  0  0  2  0  0
   -6.4520    5.6300    6.8680 N   0  0  0  0  0  0  0  0  0  0  0  0
   -6.2260    6.5240    7.8670 N   0  0  0  0  0  0  0  0  0  0  0  0
   -7.1930    6.7500    8.7820 C   0  0  0  0  0  0  0  0  0  0  0  0
   -8.4240    6.1170    8.7580 C   0  0  0  0  0  0  0  0  0  0  0  0
   -9.3950    6.3570    9.7450 N   0  0  0  0  0  0  0  0  0  0  0  0
  -10.5620    5.6840    9.7600 C   0  0  0  0  0  0  0  0  0  0  0  0
  -11.5770    5.6820   10.5960 N   0  0  0  0  0  0  0  0  0  0  0  0
  -12.4690    4.7490   10.1080 N   0  0  0  0  0  0  0  0  0  0  0  0
  -12.0160    4.1880    8.9920 N   0  0  0  0  0  0  0  0  0  0  0  0
  -10.8400    4.7900    8.7610 N   0  0  0  0  0  0  0  0  0  0  0  0
   -9.9950    4.4790    7.6090 C   0  0  0  0  0  0  0  0  0  0  0  0
   -8.6630    5.2070    7.7200 C   0  0  0  0  0  0  0  0  0  0  0  0
  -10.7490    4.8610    6.3730 C   0  0  0  0  0  0  0  0  0  0  0  0
  -11.0350    6.2020    6.1170 C   0  0  0  0  0  0  0  0  0  0  0  0
  -11.7370    6.5580    4.9650 C   0  0  0  0  0  0  0  0  0  0  0  0
  -12.1550    5.5730    4.0710 C   0  0  0  0  0  0  0  0  0  0  0  0
  -11.8700    4.2310    4.3270 C   0  0  0  0  0  0  0  0  0  0  0  0
  -11.1660    3.8760    5.4790 C   0  0  0  0  0  0  0  0  0  0  0  0
  -12.0160    7.8660    4.7150 O   0  0  0  0  0  0  0  0  0  0  0  0
   -6.8990    7.6510    9.7710 O   0  0  0  0  0  0  0  0  0  0  0  0
   -6.8043    3.1685    5.2906 N   0  0  0  0  0  0  0  0  0  0  0  0
   -7.2935    2.4318    4.3012 N   0  0  0  0  0  0  0  0  0  0  0  0
   -8.5642    2.8323    4.1061 C   0  0  0  0  0  0  0  0  0  0  0  0
   -9.6359    2.1648    2.8312 S   0  0  0  0  0  0  0  0  0  0  0  0
  -10.4095    0.9209    3.9232 C   0  0  0  0  0  0  0  0  0  0  0  0
   -9.4414   -0.1760    4.2815 C   0  0  0  0  0  0  0  0  0  0  0  0
   -8.9757   -0.1909    5.4539 O   0  0  0  0  0  0  0  0  0  0  0  0
   -9.0537   -1.2036    3.3373 N   0  0  0  0  0  0  0  0  0  0  0  0
   -8.0883   -2.2460    3.7315 C   0  0  0  0  0  0  0  0  0  0  0  0
   -8.5797   -3.6323    3.2873 C   0  0  0  0  0  0  0  0  0  0  0  0
   -9.1561   -3.6013    1.9334 N   0  0  0  0  0  0  0  0  0  0  0  0
  -10.0808   -4.6312    1.5244 C   0  0  0  0  0  0  0  0  0  0  0  0
  -11.0859   -4.3222    0.8271 O   0  0  0  0  0  0  0  0  0  0  0  0
   -9.8866   -6.0077    1.9031 N   0  0  0  0  0  0  0  0  0  0  0  0
  -11.0318   -6.8551    2.2512 C   0  0  0  0  0  0  0  0  0  0  0  0
  -10.8484   -8.2434    1.6280 C   0  0  0  0  0  0  0  0  0  0  0  0
   -9.5858   -8.7864    1.9697 O   0  0  0  0  0  0  0  0  0  0  0  0
   -8.5542   -7.9985    1.4034 C   0  0  0  0  0  0  0  0  0  0  0  0
   -8.5472   -6.5921    2.0114 C   0  0  0  0  0  0  0  0  0  0  0  0
   -9.0337   -2.3711    1.1430 C   0  0  0  0  0  0  0  0  0  0  0  0
   -9.5733   -1.1930    1.9566 C   0  0  0  0  0  0  0  0  0  0  0  0
   -8.8995    3.8151    4.9576 N   0  0  0  0  0  0  0  0  0  0  0  0
  -10.0834    4.5710    4.9543 N   0  0  0  0  0  0  0  0  0  0  0  0
  1  3  4  0
  1 14  4  0
  1  2  1  0
  3  4  4  0
  4  5  4  0
  5  6  4  0
  5 22  1  0
  6  7  1  0
  6 14  4  0
  7  8  1  0
  8  9  4  0
  8 12  4  0
  9 10  4  0
 10 11  4  0
 11 12  4  0
 12 13  1  0
 13 14  1  0
 13 15  1  6
 15 16  4  0
 15 20  4  0
 16 17  4  0
 17 18  4  0
 17 21  1  0
 18 19  4  0
 19 20  4  0
 23 24  4  0
 24 25  4  0
 25 26  1  0
 26 27  1  0
 27 28  1  0
 28 29  2  0
 28 30  1  0
 30 31  1  0
 31 32  1  0
 32 33  1  0
 33 34  1  0
 34 35  2  0
 34 36  1  0
 36 37  1  0
 37 38  1  0
 38 39  1  0
 39 40  1  0
 40 41  1  0
 33 42  1  0
 42 43  1  0
 25 44  4  0
 44 45  1  0
 43 30  1  0
 41 36  1  0
  2 23  4  0
  2 44  4  0
M  END
$$$$

     RDKit          3D

 46 52  0  0  0  0  0  0  0  0999 V2000
   -7.6410    4.9930    6.8080 C   0  0  0  0  0  0  0  0  0  1  0  0
   -7.7310    4.0530    5.7140 C   0  0  0  0  0  0  0  0  0  2  0  0
   -6.4520    5.6300    6.8680 N   0  0  0  0  0  0  0  0  0  0  0  0
   -6.2260    6.5240    7.8670 N   0  0  0  0  0  0  0  0  0  0  0  0
   -7.1930    6.7500    8.7820 C   0  0  0  0  0  0  0  0  0  0  0  0
   -8.4240    6.1170    8.7580 C   0  0  0  0  0  0  0  0  0  0  0  0
   -9.3950    6.3570    9.7450 N   0  0  0  0  0  0  0  0  0  0  0  0
  -10.5620    5.6840    9.7600 C   0  0  0  0  0  0  0  0  0  0  0  0
  -11.5770    5.6820   10.5960 N   0  0  0  0  0  0  0  0  0  0  0  0
  -12.4690    4.7490   10.1080 N   0  0  0  0  0  0  0  0  0  0  0  0
  -12.0160    4.1880    8.9920 N   0  0  0  0  0  0  0  0  0  0  0  0
  -10.8400    4.7900    8.7610 N   0  0  0  0  0  0  0  0  0  0  0  0
   -9.9950    4.4790    7.6090 C   0  0  0  0  0  0  0  0  0  0  0  0
   -8.6630    5.2070    7.7200 C   0  0  0  0  0  0  0  0  0  0  0  0
  -10.7490    4.8610    6.3730 C   0  0  0  0  0  0  0  0  0  0  0  0
  -11.0350    6.2020    6.1170 C   0  0  0  0  0  0  0  0  0  0  0  0
  -11.7370    6.5580    4.9650 C   0  0  0  0  0  0  0  0  0  0  0  0
  -12.1550    5.5730    4.0710 C   0  0  0  0  0  0  0  0  0  0  0  0
  -11.8700    4.2310    4.3270 C   0  0  0  0  0  0  0  0  0  0  0  0
  -11.1660    3.8760    5.4790 C   0  0  0  0  0  0  0  0  0  0  0  0
  -12.0160    7.8660    4.7150 O   0  0  0  0  0  0  0  0  0  0  0  0
   -6.8990    7.6510    9.7710 O   0  0  0  0  0  0  0  0  0  0  0  0
   -6.7459    3.3387    5.1417 N   0  0  0  0  0  0  0  0  0  0  0  0
   -7.2102    2.5515    4.1825 N   0  0  0  0  0  0  0  0  0  0  0  0
   -6.3659    1.7081    3.3706 C   0  0  0  0  0  0  0  0  0  0  0  0
   -6.9088    0.7736    2.4644 C   0  0  0  0  0  0  0  0  0  0  0  0
   -6.0695   -0.0413    1.6992 C   0  0  0  0  0  0  0  0  0  0  0  0
   -4.6847    0.0604    1.8287 C   0  0  0  0  0  0  0  0  0  0  0  0
   -4.1326    0.9847    2.7172 C   0  0  0  0  0  0  0  0  0  0  0  0
   -4.9652    1.8002    3.4870 C   0  0  0  0  0  0  0  0  0  0  0  0
   -8.5482    2.7103    4.0848 C   0  0  0  0  0  0  0  0  0  0  0  0
   -8.9560    3.6179    5.0465 C   0  0  0  0  0  0  0  0  0  0  0  0
  -10.2939    4.2335    5.1647 C   0  0  0  0  0  0  0  0  0  0  0  0
  -11.4564    3.5874    4.9838 C   0  0  0  0  0  0  0  0  0  0  0  0
  -11.5988    2.1210    4.8334 C   0  0  0  0  0  0  0  0  0  0  0  0
  -10.7931    1.3567    5.4344 O   0  0  0  0  0  0  0  0  0  0  0  0
  -12.6902    1.5488    4.0814 N   0  0  0  0  0  0  0  0  0  0  0  0
  -13.0456    0.1439    4.3009 C   0  0  0  0  0  0  0  0  0  0  0  0
  -13.4136    2.3141    3.0583 C   0  0  0  0  0  0  0  0  0  0  0  0
  -14.8141    2.6127    3.5222 C   0  0  0  0  0  0  0  0  0  0  0  0
  -14.9706    3.3470    4.5370 O   0  0  0  0  0  0  0  0  0  0  0  0
  -15.9695    2.0817    2.8453 N   0  0  0  0  0  0  0  0  0  0  0  0
  -17.3167    2.2428    3.3600 C   0  0  0  0  0  0  0  0  0  0  0  0
  -18.2080    1.4073    2.4531 C   0  0  0  0  0  0  0  0  0  0  0  0
  -17.3900    1.1426    1.1978 C   0  0  0  0  0  0  0  0  0  0  0  0
  -15.9364    1.3435    1.5963 C   0  0  0  0  0  0  0  0  0  0  0  0
  1  3  4  0
  1 14  4  0
  1  2  1  0
  3  4  4  0
  4  5  4  0
  5  6  4  0
  5 22  1  0
  6  7  1  0
  6 14  4  0
  7  8  1  0
  8  9  4  0
  8 12  4  0
  9 10  4  0
 10 11  4  0
 11 12  4  0
 12 13  1  0
 13 14  1  0
 13 15  1  6
 15 16  4  0
 15 20  4  0
 16 17  4  0
 17 18  4  0
 17 21  1  0
 18 19  4  0
 19 20  4  0
 23 24  4  0
 24 25  1  0
 25 26  4  0
 26 27  4  0
 27 28  4  0
 28 29  4  0
 29 30  4  0
 24 31  4  0
 31 32  4  0
 32 33  1  0
 33 34  2  3
 34 35  1  0
 35 36  2  0
 35 37  1  0
 37 38  1  0
 37 39  1  0
 39 40  1  0
 40 41  2  0
 40 42  1  0
 42 43  1  0
 43 44  1  0
 44 45  1  0
 45 46  1  0
 46 42  1  0
 30 25  4  0
  2 23  4  0
  2 32  4  0
M  END
$$$$

     RDKit          3D

 41 46  0  0  0  0  0  0  0  0999 V2000
   -7.6410    4.9930    6.8080 C   0  0  0  0  0  0  0  0  0  1  0  0
   -7.7310    4.0530    5.7140 C   0  0  0  0  0  0  0  0  0  2  0  0
   -6.4520    5.6300    6.8680 N   0  0  0  0  0  0  0  0  0  0  0  0
   -6.2260    6.5240    7.8670 N   0  0  0  0  0  0  0  0  0  0  0  0
   -7.1930    6.7500    8.7820 C   0  0  0  0  0  0  0  0  0  0  0  0
   -8.4240    6.1170    8.7580 C   0  0  0  0  0  0  0  0  0  0  0  0
   -9.3950    6.3570    9.7450 N   0  0  0  0  0  0  0  0  0  0  0  0
  -10.5620    5.6840    9.7600 C   0  0  0  0  0  0  0  0  0  0  0  0
  -11.5770    5.6820   10.5960 N   0  0  0  0  0  0  0  0  0  0  0  0
  -12.4690    4.7490   10.1080 N   0  0  0  0  0  0  0  0  0  0  0  0
  -12.0160    4.1880    8.9920 N   0  0  0  0  0  0  0  0  0  0  0  0
  -10.8400    4.7900    8.7610 N   0  0  0  0  0  0  0  0  0  0  0  0
   -9.9950    4.4790    7.6090 C   0  0  0  0  0  0  0  0  0  0  0  0
   -8.6630    5.2070    7.7200 C   0  0  0  0  0  0  0  0  0  0  0  0
  -10.7490    4.8610    6.3730 C   0  0  0  0  0  0  0  0  0  0  0  0
  -11.0350    6.2020    6.1170 C   0  0  0  0  0  0  0  0  0  0  0  0
  -11.7370    6.5580    4.9650 C   0  0  0  0  0  0  0  0  0  0  0  0
  -12.1550    5.5730    4.0710 C   0  0  0  0  0  0  0  0  0  0  0  0
  -11.8700    4.2310    4.3270 C   0  0  0  0  0  0  0  0  0  0  0  0
  -11.1660    3.8760    5.4790 C   0  0  0  0  0  0  0  0  0  0  0  0
  -12.0160    7.8660    4.7150 O   0  0  0  0  0  0  0  0  0  0  0  0
   -6.8990    7.6510    9.7710 O   0  0  0  0  0  0  0  0  0  0  0  0
   -6.7866    3.0827    5.3072 C   0  0  0  0  0  0  0  0  0  0  0  0
   -5.4468    3.0438    5.9855 C   0  0  0  0  0  0  0  0  0  0  0  0
   -7.0210    2.1949    4.3053 N   0  0  0  0  0  0  0  0  0  0  0  0
   -8.2152    2.1785    3.6732 C   0  0  0  0  0  0  0  0  0  0  0  0
   -8.6310    1.1279    2.4397 S   0  0  0  0  0  0  0  0  0  0  0  0
  -10.1749    1.7848    2.2850 C   0  0  0  0  0  0  0  0  0  0  0  0
  -10.3242    2.8345    3.2063 C   0  0  0  0  0  0  0  0  0  0  0  0
  -11.6010    3.6441    3.3374 C   0  0  0  0  0  0  0  0  0  0  0  0
  -12.6010    3.3878    2.2451 C   0  0  0  0  0  0  0  0  0  0  0  0
  -12.3666    3.8133    1.0817 O   0  0  0  0  0  0  0  0  0  0  0  0
  -13.8117    2.6694    2.5233 N   0  0  0  0  0  0  0  0  0  0  0  0
  -14.8735    2.5111    1.5303 C   0  0  0  0  0  0  0  0  0  0  0  0
  -15.6292    3.8388    1.3422 C   0  0  0  0  0  0  0  0  0  0  0  0
  -16.8163    3.7001    0.4636 N   0  0  0  0  0  0  0  0  0  0  0  0
  -16.4300    3.4826   -0.9441 C   0  0  0  0  0  0  0  0  0  0  0  0
  -17.6544    4.9091    0.5631 C   0  0  0  0  0  0  0  0  0  0  0  0
   -9.2141    3.0329    3.9956 N   0  0  0  0  0  0  0  0  0  0  0  0
   -9.0393    3.9455    5.0032 C   0  0  0  0  0  0  0  0  0  0  0  0
   -9.9621    4.7462    5.3163 O   0  0  0  0  0  0  0  0  0  0  0  0
  1  3  4  0
  1 14  4  0
  1  2  1  0
  3  4  4  0
  4  5  4  0
  5  6  4  0
  5 22  1  0
  6  7  1  0
  6 14  4  0
  7  8  1  0
  8  9  4  0
  8 12  4  0
  9 10  4  0
 10 11  4  0
 11 12  4  0
 12 13  1  0
 13 14  1  0
 13 15  1  6
 15 16  4  0
 15 20  4  0
 16 17  4  0
 17 18  4  0
 17 21  1  0
 18 19  4  0
 19 20  4  0
 23 24  1  0
 23 25  4  0
 25 26  4  0
 26 27  4  0
 27 28  4  0
 28 29  4  0
 29 30  1  0
 30 31  1  0
 31 32  2  0
 31 33  1  0
 33 34  1  0
 34 35  1  0
 35 36  1  0
 36 37  1  0
 36 38  1  0
 29 39  4  0
 39 40  4  0
 40 41  2  0
 39 26  4  0
  2 23  4  0
  2 40  4  0
M  CHG  1  36   1
M  END
$$$$

     RDKit          3D

 41 46  0  0  0  0  0  0  0  0999 V2000
   -7.6410    4.9930    6.8080 C   0  0  0  0  0  0  0  0  0  1  0  0
   -7.7310    4.0530    5.7140 C   0  0  0  0  0  0  0  0  0  2  0  0
   -6.4520    5.6300    6.8680 N   0  0  0  0  0  0  0  0  0  0  0  0
   -6.2260    6.5240    7.8670 N   0  0  0  0  0  0  0  0  0  0  0  0
   -7.1930    6.7500    8.7820 C   0  0  0  0  0  0  0  0  0  0  0  0
   -8.4240    6.1170    8.7580 C   0  0  0  0  0  0  0  0  0  0  0  0
   -9.3950    6.3570    9.7450 N   0  0  0  0  0  0  0  0  0  0  0  0
  -10.5620    5.6840    9.7600 C   0  0  0  0  0  0  0  0  0  0  0  0
  -11.5770    5.6820   10.5960 N   0  0  0  0  0  0  0  0  0  0  0  0
  -12.4690    4.7490   10.1080 N   0  0  0  0  0  0  0  0  0  0  0  0
  -12.0160    4.1880    8.9920 N   0  0  0  0  0  0  0  0  0  0  0  0
  -10.8400    4.7900    8.7610 N   0  0  0  0  0  0  0  0  0  0  0  0
   -9.9950    4.4790    7.6090 C   0  0  0  0  0  0  0  0  0  0  0  0
   -8.6630    5.2070    7.7200 C   0  0  0  0  0  0  0  0  0  0  0  0
  -10.7490    4.8610    6.3730 C   0  0  0  0  0  0  0  0  0  0  0  0
  -11.0350    6.2020    6.1170 C   0  0  0  0  0  0  0  0  0  0  0  0
  -11.7370    6.5580    4.9650 C   0  0  0  0  0  0  0  0  0  0  0  0
  -12.1550    5.5730    4.0710 C   0  0  0  0  0  0  0  0  0  0  0  0
  -11.8700    4.2310    4.3270 C   0  0  0  0  0  0  0  0  0  0  0  0
  -11.1660    3.8760    5.4790 C   0  0  0  0  0  0  0  0  0  0  0  0
  -12.0160    7.8660    4.7150 O   0  0  0  0  0  0  0  0  0  0  0  0
   -6.8990    7.6510    9.7710 O   0  0  0  0  0  0  0  0  0  0  0  0
   -6.7765    3.1092    5.2742 C   0  0  0  0  0  0  0  0  0  0  0  0
   -5.4190    3.0933    5.9154 C   0  0  0  0  0  0  0  0  0  0  0  0
   -7.0193    2.2160    4.2788 N   0  0  0  0  0  0  0  0  0  0  0  0
   -8.2309    2.1675    3.6838 C   0  0  0  0  0  0  0  0  0  0  0  0
   -8.6618    1.0918    2.4788 S   0  0  0  0  0  0  0  0  0  0  0  0
  -10.2292    1.6964    2.3801 C   0  0  0  0  0  0  0  0  0  0  0  0
  -10.3741    2.7533    3.2936 C   0  0  0  0  0  0  0  0  0  0  0  0
  -11.6637    3.5386    3.4538 C   0  0  0  0  0  0  0  0  0  0  0  0
  -12.7075    3.2212    2.4135 C   0  0  0  0  0  0  0  0  0  0  0  0
  -13.7170    2.5495    2.7558 O   0  0  0  0  0  0  0  0  0  0  0  0
  -12.5940    3.6513    1.0454 N   0  0  0  0  0  0  0  0  0  0  0  0
  -11.4783    4.4227    0.4914 C   0  0  0  0  0  0  0  0  0  0  0  0
  -10.9083    3.6897   -0.7341 C   0  0  0  0  0  0  0  0  0  0  0  0
   -9.6854    4.3346   -1.2711 N   0  0  0  0  0  0  0  0  0  0  0  0
   -9.9930    5.6058   -1.9555 C   0  0  0  0  0  0  0  0  0  0  0  0
   -9.0174    3.4194   -2.2135 C   0  0  0  0  0  0  0  0  0  0  0  0
   -9.2419    2.9915    4.0389 N   0  0  0  0  0  0  0  0  0  0  0  0
   -9.0615    3.9064    5.0445 C   0  0  0  0  0  0  0  0  0  0  0  0
  -10.0012    4.6719    5.3955 O   0  0  0  0  0  0  0  0  0  0  0  0
  1  3  4  0
  1 14  4  0
  1  2  1  0
  3  4  4  0
  4  5  4  0
  5  6  4  0
  5 22  1  0
  6  7  1  0
  6 14  4  0
  7  8  1  0
  8  9  4  0
  8 12  4  0
  9 10  4  0
 10 11  4  0
 11 12  4  0
 12 13  1  0
 13 14  1  0
 13 15  1  6
 15 16  4  0
 15 20  4  0
 16 17  4  0
 17 18  4  0
 17 21  1  0
 18 19  4  0
 19 20  4  0
 23 24  1  0
 23 25  4  0
 25 26  4  0
 26 27  4  0
 27 28  4  0
 28 29  4  0
 29 30  1  0
 30 31  1  0
 31 32  2  0
 31 33  1  0
 33 34  1  0
 34 35  1  0
 35 36  1  0
 36 37  1  0
 36 38  1  0
 29 39  4  0
 39 40  4  0
 40 41  2  0
 39 26  4  0
  2 23  4  0
  2 40  4  0
M  CHG  1  36   1
M  END
$$$$

     RDKit          3D

 29 34  0  0  0  0  0  0  0  0999 V2000
   -7.6410    4.9930    6.8080 C   0  0  0  0  0  0  0  0  0  1  0  0
   -7.7310    4.0530    5.7140 C   0  0  0  0  0  0  0  0  0  2  0  0
   -6.4520    5.6300    6.8680 N   0  0  0  0  0  0  0  0  0  0  0  0
   -6.2260    6.5240    7.8670 N   0  0  0  0  0  0  0  0  0  0  0  0
   -7.1930    6.7500    8.7820 C   0  0  0  0  0  0  0  0  0  0  0  0
   -8.4240    6.1170    8.7580 C   0  0  0  0  0  0  0  0  0  0  0  0
   -9.3950    6.3570    9.7450 N   0  0  0  0  0  0  0  0  0  0  0  0
  -10.5620    5.6840    9.7600 C   0  0  0  0  0  0  0  0  0  0  0  0
  -11.5770    5.6820   10.5960 N   0  0  0  0  0  0  0  0  0  0  0  0
  -12.4690    4.7490   10.1080 N   0  0  0  0  0  0  0  0  0  0  0  0
  -12.0160    4.1880    8.9920 N   0  0  0  0  0  0  0  0  0  0  0  0
  -10.8400    4.7900    8.7610 N   0  0  0  0  0  0  0  0  0  0  0  0
   -9.9950    4.4790    7.6090 C   0  0  0  0  0  0  0  0  0  0  0  0
   -8.6630    5.2070    7.7200 C   0  0  0  0  0  0  0  0  0  0  0  0
  -10.7490    4.8610    6.3730 C   0  0  0  0  0  0  0  0  0  0  0  0
  -11.0350    6.2020    6.1170 C   0  0  0  0  0  0  0  0  0  0  0  0
  -11.7370    6.5580    4.9650 C   0  0  0  0  0  0  0  0  0  0  0  0
  -12.1550    5.5730    4.0710 C   0  0  0  0  0  0  0  0  0  0  0  0
  -11.8700    4.2310    4.3270 C   0  0  0  0  0  0  0  0  0  0  0  0
  -11.1660    3.8760    5.4790 C   0  0  0  0  0  0  0  0  0  0  0  0
  -12.0160    7.8660    4.7150 O   0  0  0  0  0  0  0  0  0  0  0  0
   -6.8990    7.6510    9.7710 O   0  0  0  0  0  0  0  0  0  0  0  0
   -6.7998    3.4984    4.9328 N   0  0  0  0  0  0  0  0  0  0  0  0
   -7.3135    2.8529    3.8935 N   0  0  0  0  0  0  0  0  0  0  0  0
   -8.6493    2.8837    4.0490 C   0  0  0  0  0  0  0  0  0  0  0  0
   -8.9931    3.5924    5.1385 C   0  0  0  0  0  0  0  0  0  0  0  0
  -10.3219    4.2296    5.0072 C   0  0  0  0  0  0  0  0  0  0  0  0
  -10.8399    3.6736    3.6571 C   0  0  0  0  0  0  0  0  0  0  0  0
   -9.6870    2.8757    3.0006 C   0  0  0  0  0  0  0  0  0  0  0  0
  1  3  4  0
  1 14  4  0
  1  2  1  0
  3  4  4  0
  4  5  4  0
  5  6  4  0
  5 22  1  0
  6  7  1  0
  6 14  4  0
  7  8  1  0
  8  9  4  0
  8 12  4  0
  9 10  4  0
 10 11  4  0
 11 12  4  0
 12 13  1  0
 13 14  1  0
 13 15  1  6
 15 16  4  0
 15 20  4  0
 16 17  4  0
 17 18  4  0
 17 21  1  0
 18 19  4  0
 19 20  4  0
 23 24  4  0
 24 25  4  0
 25 26  4  0
 26 27  1  0
 27 28  1  0
 28 29  1  0
 29 25  1  0
  2 23  4  0
  2 26  4  0
M  END
$$$$

     RDKit          3D

 34 39  0  0  0  0  0  0  0  0999 V2000
   -7.6410    4.9930    6.8080 C   0  0  0  0  0  0  0  0  0  1  0  0
   -7.7310    4.0530    5.7140 C   0  0  0  0  0  0  0  0  0  2  0  0
   -6.4520    5.6300    6.8680 N   0  0  0  0  0  0  0  0  0  0  0  0
   -6.2260    6.5240    7.8670 N   0  0  0  0  0  0  0  0  0  0  0  0
   -7.1930    6.7500    8.7820 C   0  0  0  0  0  0  0  0  0  0  0  0
   -8.4240    6.1170    8.7580 C   0  0  0  0  0  0  0  0  0  0  0  0
   -9.3950    6.3570    9.7450 N   0  0  0  0  0  0  0  0  0  0  0  0
  -10.5620    5.6840    9.7600 C   0  0  0  0  0  0  0  0  0  0  0  0
  -11.5770    5.6820   10.5960 N   0  0  0  0  0  0  0  0  0  0  0  0
  -12.4690    4.7490   10.1080 N   0  0  0  0  0  0  0  0  0  0  0  0
  -12.0160    4.1880    8.9920 N   0  0  0  0  0  0  0  0  0  0  0  0
  -10.8400    4.7900    8.7610 N   0  0  0  0  0  0  0  0  0  0  0  0
   -9.9950    4.4790    7.6090 C   0  0  0  0  0  0  0  0  0  0  0  0
   -8.6630    5.2070    7.7200 C   0  0  0  0  0  0  0  0  0  0  0  0
  -10.7490    4.8610    6.3730 C   0  0  0  0  0  0  0  0  0  0  0  0
  -11.0350    6.2020    6.1170 C   0  0  0  0  0  0  0  0  0  0  0  0
  -11.7370    6.5580    4.9650 C   0  0  0  0  0  0  0  0  0  0  0  0
  -12.1550    5.5730    4.0710 C   0  0  0  0  0  0  0  0  0  0  0  0
  -11.8700    4.2310    4.3270 C   0  0  0  0  0  0  0  0  0  0  0  0
  -11.1660    3.8760    5.4790 C   0  0  0  0  0  0  0  0  0  0  0  0
  -12.0160    7.8660    4.7150 O   0  0  0  0  0  0  0  0  0  0  0  0
   -6.8990    7.6510    9.7710 O   0  0  0  0  0  0  0  0  0  0  0  0
   -6.8381    3.0847    5.3876 N   0  0  0  0  0  0  0  0  0  0  0  0
   -7.3468    2.4510    4.3126 C   0  0  0  0  0  0  0  0  0  0  0  0
   -6.7253    1.4200    3.6114 C   0  0  0  0  0  0  0  0  0  0  0  0
   -7.3842    0.9063    2.4839 C   0  0  0  0  0  0  0  0  0  0  0  0
   -8.6274    1.4343    2.0854 C   0  0  0  0  0  0  0  0  0  0  0  0
   -9.5167    0.7447    0.5431 Br  0  0  0  0  0  0  0  0  0  0  0  0
   -9.2055    2.4750    2.8280 C   0  0  0  0  0  0  0  0  0  0  0  0
   -8.5403    2.9331    3.9228 N   0  0  0  0  0  0  0  0  0  0  0  0
   -8.8449    3.9178    4.7884 C   0  0  0  0  0  0  0  0  0  0  0  0
   -9.9882    4.8851    4.6218 C   0  0  0  0  0  0  0  0  0  0  0  0
   -9.5982    6.0115    3.6585 C   0  0  0  0  0  0  0  0  0  0  0  0
  -10.7006    6.9566    3.4849 N   0  0  0  0  0  0  0  0  0  0  0  0
  1  3  4  0
  1 14  4  0
  1  2  1  0
  3  4  4  0
  4  5  4  0
  5  6  4  0
  5 22  1  0
  6  7  1  0
  6 14  4  0
  7  8  1  0
  8  9  4  0
  8 12  4  0
  9 10  4  0
 10 11  4  0
 11 12  4  0
 12 13  1  0
 13 14  1  0
 13 15  1  6
 15 16  4  0
 15 20  4  0
 16 17  4  0
 17 18  4  0
 17 21  1  0
 18 19  4  0
 19 20  4  0
 23 24  4  0
 24 25  4  0
 25 26  4  0
 26 27  4  0
 27 28  1  0
 27 29  4  0
 29 30  4  0
 30 31  4  0
 31 32  1  0
 32 33  1  0
 33 34  1  0
 30 24  4  0
  2 23  4  0
  2 31  4  0
M  CHG  1  34   1
M  END
$$$$

     RDKit          3D

 32 37  0  0  0  0  0  0  0  0999 V2000
   -7.6410    4.9930    6.8080 C   0  0  0  0  0  0  0  0  0  1  0  0
   -7.7310    4.0530    5.7140 C   0  0  0  0  0  0  0  0  0  2  0  0
   -6.4520    5.6300    6.8680 N   0  0  0  0  0  0  0  0  0  0  0  0
   -6.2260    6.5240    7.8670 N   0  0  0  0  0  0  0  0  0  0  0  0
   -7.1930    6.7500    8.7820 C   0  0  0  0  0  0  0  0  0  0  0  0
   -8.4240    6.1170    8.7580 C   0  0  0  0  0  0  0  0  0  0  0  0
   -9.3950    6.3570    9.7450 N   0  0  0  0  0  0  0  0  0  0  0  0
  -10.5620    5.6840    9.7600 C   0  0  0  0  0  0  0  0  0  0  0  0
  -11.5770    5.6820   10.5960 N   0  0  0  0  0  0  0  0  0  0  0  0
  -12.4690    4.7490   10.1080 N   0  0  0  0  0  0  0  0  0  0  0  0
  -12.0160    4.1880    8.9920 N   0  0  0  0  0  0  0  0  0  0  0  0
  -10.8400    4.7900    8.7610 N   0  0  0  0  0  0  0  0  0  0  0  0
   -9.9950    4.4790    7.6090 C   0  0  0  0  0  0  0  0  0  0  0  0
   -8.6630    5.2070    7.7200 C   0  0  0  0  0  0  0  0  0  0  0  0
  -10.7490    4.8610    6.3730 C   0  0  0  0  0  0  0  0  0  0  0  0
  -11.0350    6.2020    6.1170 C   0  0  0  0  0  0  0  0  0  0  0  0
  -11.7370    6.5580    4.9650 C   0  0  0  0  0  0  0  0  0  0  0  0
  -12.1550    5.5730    4.0710 C   0  0  0  0  0  0  0  0  0  0  0  0
  -11.8700    4.2310    4.3270 C   0  0  0  0  0  0  0  0  0  0  0  0
  -11.1660    3.8760    5.4790 C   0  0  0  0  0  0  0  0  0  0  0  0
  -12.0160    7.8660    4.7150 O   0  0  0  0  0  0  0  0  0  0  0  0
   -6.8990    7.6510    9.7710 O   0  0  0  0  0  0  0  0  0  0  0  0
   -6.9047    2.9641    5.4064 C   0  0  0  0  0  0  0  0  0  0  0  0
   -7.4101    2.1820    4.4716 O   0  0  0  0  0  0  0  0  0  0  0  0
   -8.5756    2.6755    4.1371 C   0  0  0  0  0  0  0  0  0  0  0  0
   -9.4270    2.1556    3.2217 N   0  0  0  0  0  0  0  0  0  0  0  0
  -10.6088    2.7988    2.9891 C   0  0  0  0  0  0  0  0  0  0  0  0
  -11.5295    2.2707    2.0375 N   0  0  0  0  0  0  0  0  0  0  0  0
  -10.9040    3.9605    3.6520 N   0  0  0  0  0  0  0  0  0  0  0  0
  -10.0516    4.5016    4.5716 C   0  0  0  0  0  0  0  0  0  0  0  0
  -10.3548    5.7716    5.1508 N   0  0  0  0  0  0  0  0  0  0  0  0
   -8.8628    3.8118    4.8394 C   0  0  0  0  0  0  0  0  0  0  0  0
  1  3  4  0
  1 14  4  0
  1  2  1  0
  3  4  4  0
  4  5  4  0
  5  6  4  0
  5 22  1  0
  6  7  1  0
  6 14  4  0
  7  8  1  0
  8  9  4  0
  8 12  4  0
  9 10  4  0
 10 11  4  0
 11 12  4  0
 12 13  1  0
 13 14  1  0
 13 15  1  6
 15 16  4  0
 15 20  4  0
 16 17  4  0
 17 18  4  0
 17 21  1  0
 18 19  4  0
 19 20  4  0
 23 24  4  0
 24 25  4  0
 25 26  4  0
 26 27  4  0
 27 28  1  0
 27 29  4  0
 29 30  4  0
 30 31  1  0
 30 32  4  0
 32 25  4  0
  2 23  4  0
  2 32  4  0
M  END
$$$$

     RDKit          3D

 29 33  0  0  0  0  0  0  0  0999 V2000
   -7.6410    4.9930    6.8080 C   0  0  0  0  0  0  0  0  0  1  0  0
   -7.7310    4.0530    5.7140 C   0  0  0  0  0  0  0  0  0  2  0  0
   -6.4520    5.6300    6.8680 N   0  0  0  0  0  0  0  0  0  0  0  0
   -6.2260    6.5240    7.8670 N   0  0  0  0  0  0  0  0  0  0  0  0
   -7.1930    6.7500    8.7820 C   0  0  0  0  0  0  0  0  0  0  0  0
   -8.4240    6.1170    8.7580 C   0  0  0  0  0  0  0  0  0  0  0  0
   -9.3950    6.3570    9.7450 N   0  0  0  0  0  0  0  0  0  0  0  0
  -10.5620    5.6840    9.7600 C   0  0  0  0  0  0  0  0  0  0  0  0
  -11.5770    5.6820   10.5960 N   0  0  0  0  0  0  0  0  0  0  0  0
  -12.4690    4.7490   10.1080 N   0  0  0  0  0  0  0  0  0  0  0  0
  -12.0160    4.1880    8.9920 N   0  0  0  0  0  0  0  0  0  0  0  0
  -10.8400    4.7900    8.7610 N   0  0  0  0  0  0  0  0  0  0  0  0
   -9.9950    4.4790    7.6090 C   0  0  0  0  0  0  0  0  0  0  0  0
   -8.6630    5.2070    7.7200 C   0  0  0  0  0  0  0  0  0  0  0  0
  -10.7490    4.8610    6.3730 C   0  0  0  0  0  0  0  0  0  0  0  0
  -11.0350    6.2020    6.1170 C   0  0  0  0  0  0  0  0  0  0  0  0
  -11.7370    6.5580    4.9650 C   0  0  0  0  0  0  0  0  0  0  0  0
  -12.1550    5.5730    4.0710 C   0  0  0  0  0  0  0  0  0  0  0  0
  -11.8700    4.2310    4.3270 C   0  0  0  0  0  0  0  0  0  0  0  0
  -11.1660    3.8760    5.4790 C   0  0  0  0  0  0  0  0  0  0  0  0
  -12.0160    7.8660    4.7150 O   0  0  0  0  0  0  0  0  0  0  0  0
   -6.8990    7.6510    9.7710 O   0  0  0  0  0  0  0  0  0  0  0  0
   -6.9043    2.9374    5.4976 C   0  0  0  0  0  0  0  0  0  0  0  0
   -7.1283    1.9769    4.4995 C   0  0  0  0  0  0  0  0  0  0  0  0
   -6.1316    0.8789    4.2723 C   0  0  0  0  0  0  0  0  0  0  0  0
   -8.2587    2.0866    3.6776 C   0  0  0  0  0  0  0  0  0  0  0  0
   -9.1729    3.1237    3.8749 C   0  0  0  0  0  0  0  0  0  0  0  0
   -8.9572    4.0729    4.8786 C   0  0  0  0  0  0  0  0  0  0  0  0
   -9.8792    5.1000    5.0524 O   0  0  0  0  0  0  0  0  0  0  0  0
  1  3  4  0
  1 14  4  0
  1  2  1  0
  3  4  4  0
  4  5  4  0
  5  6  4  0
  5 22  1  0
  6  7  1  0
  6 14  4  0
  7  8  1  0
  8  9  4  0
  8 12  4  0
  9 10  4  0
 10 11  4  0
 11 12  4  0
 12 13  1  0
 13 14  1  0
 13 15  1  6
 15 16  4  0
 15 20  4  0
 16 17  4  0
 17 18  4  0
 17 21  1  0
 18 19  4  0
 19 20  4  0
 23 24  4  0
 24 25  1  0
 24 26  4  0
 26 27  4  0
 27 28  4  0
 28 29  1  0
  2 23  4  0
  2 28  4  0
M  CHG  1  29  -1
M  END
$$$$

     RDKit          3D

 30 34  0  0  0  0  0  0  0  0999 V2000
   -7.6410    4.9930    6.8080 C   0  0  0  0  0  0  0  0  0  1  0  0
   -7.7310    4.0530    5.7140 C   0  0  0  0  0  0  0  0  0  2  0  0
   -6.4520    5.6300    6.8680 N   0  0  0  0  0  0  0  0  0  0  0  0
   -6.2260    6.5240    7.8670 N   0  0  0  0  0  0  0  0  0  0  0  0
   -7.1930    6.7500    8.7820 C   0  0  0  0  0  0  0  0  0  0  0  0
   -8.4240    6.1170    8.7580 C   0  0  0  0  0  0  0  0  0  0  0  0
   -9.3950    6.3570    9.7450 N   0  0  0  0  0  0  0  0  0  0  0  0
  -10.5620    5.6840    9.7600 C   0  0  0  0  0  0  0  0  0  0  0  0
  -11.5770    5.6820   10.5960 N   0  0  0  0  0  0  0  0  0  0  0  0
  -12.4690    4.7490   10.1080 N   0  0  0  0  0  0  0  0  0  0  0  0
  -12.0160    4.1880    8.9920 N   0  0  0  0  0  0  0  0  0  0  0  0
  -10.8400    4.7900    8.7610 N   0  0  0  0  0  0  0  0  0  0  0  0
   -9.9950    4.4790    7.6090 C   0  0  0  0  0  0  0  0  0  0  0  0
   -8.6630    5.2070    7.7200 C   0  0  0  0  0  0  0  0  0  0  0  0
  -10.7490    4.8610    6.3730 C   0  0  0  0  0  0  0  0  0  0  0  0
  -11.0350    6.2020    6.1170 C   0  0  0  0  0  0  0  0  0  0  0  0
  -11.7370    6.5580    4.9650 C   0  0  0  0  0  0  0  0  0  0  0  0
  -12.1550    5.5730    4.0710 C   0  0  0  0  0  0  0  0  0  0  0  0
  -11.8700    4.2310    4.3270 C   0  0  0  0  0  0  0  0  0  0  0  0
  -11.1660    3.8760    5.4790 C   0  0  0  0  0  0  0  0  0  0  0  0
  -12.0160    7.8660    4.7150 O   0  0  0  0  0  0  0  0  0  0  0  0
   -6.8990    7.6510    9.7710 O   0  0  0  0  0  0  0  0  0  0  0  0
   -6.9597    2.8860    5.5845 C   0  0  0  0  0  0  0  0  0  0  0  0
   -7.1680    1.9061    4.6137 C   0  0  0  0  0  0  0  0  0  0  0  0
   -8.2406    2.0036    3.7247 C   0  0  0  0  0  0  0  0  0  0  0  0
   -8.4114    0.9851    2.7746 O   0  0  0  0  0  0  0  0  0  0  0  0
   -9.4538    0.9551    1.8049 C   0  0  0  0  0  0  0  0  0  0  0  0
   -9.1046    3.1112    3.8089 C   0  0  0  0  0  0  0  0  0  0  0  0
   -8.8947    4.1164    4.7688 C   0  0  0  0  0  0  0  0  0  0  0  0
   -9.8342    5.2937    4.7929 C   0  0  0  0  0  0  0  0  0  0  0  0
  1  3  4  0
  1 14  4  0
  1  2  1  0
  3  4  4  0
  4  5  4  0
  5  6  4  0
  5 22  1  0
  6  7  1  0
  6 14  4  0
  7  8  1  0
  8  9  4  0
  8 12  4  0
  9 10  4  0
 10 11  4  0
 11 12  4  0
 12 13  1  0
 13 14  1  0
 13 15  1  6
 15 16  4  0
 15 20  4  0
 16 17  4  0
 17 18  4  0
 17 21  1  0
 18 19  4  0
 19 20  4  0
 23 24  4  0
 24 25  4  0
 25 26  1  0
 26 27  1  0
 25 28  4  0
 28 29  4  0
 29 30  1  0
  2 23  4  0
  2 29  4  0
M  END
$$$$

     RDKit          3D

 33 37  0  0  0  0  0  0  0  0999 V2000
   -7.6410    4.9930    6.8080 C   0  0  0  0  0  0  0  0  0  1  0  0
   -7.7310    4.0530    5.7140 C   0  0  0  0  0  0  0  0  0  2  0  0
   -6.4520    5.6300    6.8680 N   0  0  0  0  0  0  0  0  0  0  0  0
   -6.2260    6.5240    7.8670 N   0  0  0  0  0  0  0  0  0  0  0  0
   -7.1930    6.7500    8.7820 C   0  0  0  0  0  0  0  0  0  0  0  0
   -8.4240    6.1170    8.7580 C   0  0  0  0  0  0  0  0  0  0  0  0
   -9.3950    6.3570    9.7450 N   0  0  0  0  0  0  0  0  0  0  0  0
  -10.5620    5.6840    9.7600 C   0  0  0  0  0  0  0  0  0  0  0  0
  -11.5770    5.6820   10.5960 N   0  0  0  0  0  0  0  0  0  0  0  0
  -12.4690    4.7490   10.1080 N   0  0  0  0  0  0  0  0  0  0  0  0
  -12.0160    4.1880    8.9920 N   0  0  0  0  0  0  0  0  0  0  0  0
  -10.8400    4.7900    8.7610 N   0  0  0  0  0  0  0  0  0  0  0  0
   -9.9950    4.4790    7.6090 C   0  0  0  0  0  0  0  0  0  0  0  0
   -8.6630    5.2070    7.7200 C   0  0  0  0  0  0  0  0  0  0  0  0
  -10.7490    4.8610    6.3730 C   0  0  0  0  0  0  0  0  0  0  0  0
  -11.0350    6.2020    6.1170 C   0  0  0  0  0  0  0  0  0  0  0  0
  -11.7370    6.5580    4.9650 C   0  0  0  0  0  0  0  0  0  0  0  0
  -12.1550    5.5730    4.0710 C   0  0  0  0  0  0  0  0  0  0  0  0
  -11.8700    4.2310    4.3270 C   0  0  0  0  0  0  0  0  0  0  0  0
  -11.1660    3.8760    5.4790 C   0  0  0  0  0  0  0  0  0  0  0  0
  -12.0160    7.8660    4.7150 O   0  0  0  0  0  0  0  0  0  0  0  0
   -6.8990    7.6510    9.7710 O   0  0  0  0  0  0  0  0  0  0  0  0
   -6.9315    2.8930    5.6035 C   0  0  0  0  0  0  0  0  0  0  0  0
   -7.0776    1.9621    4.5726 C   0  0  0  0  0  0  0  0  0  0  0  0
   -8.0800    2.1265    3.5995 C   0  0  0  0  0  0  0  0  0  0  0  0
   -8.2550    1.1135    2.4868 C   0  0  0  0  0  0  0  0  0  0  0  0
   -8.7753   -0.2165    3.0507 C   0  0  0  0  0  0  0  0  0  0  0  0
   -6.9709    0.9555    1.7112 C   0  0  0  0  0  0  0  0  0  0  0  0
   -6.3581   -0.1454    1.6772 O   0  0  0  0  0  0  0  0  0  0  0  0
   -6.4509    2.0439    1.0216 O   0  0  0  0  0  0  0  0  0  0  0  0
   -8.9378    3.2359    3.6858 C   0  0  0  0  0  0  0  0  0  0  0  0
   -8.7923    4.1688    4.7171 C   0  0  0  0  0  0  0  0  0  0  0  0
   -9.6193    5.2445    4.7589 F   0  0  0  0  0  0  0  0  0  0  0  0
  1  3  4  0
  1 14  4  0
  1  2  1  0
  3  4  4  0
  4  5  4  0
  5  6  4  0
  5 22  1  0
  6  7  1  0
  6 14  4  0
  7  8  1  0
  8  9  4  0
  8 12  4  0
  9 10  4  0
 10 11  4  0
 11 12  4  0
 12 13  1  0
 13 14  1  0
 13 15  1  6
 15 16  4  0
 15 20  4  0
 16 17  4  0
 17 18  4  0
 17 21  1  0
 18 19  4  0
 19 20  4  0
 23 24  4  0
 24 25  4  0
 25 26  1  0
 26 27  1  0
 26 28  1  0
 28 29  2  0
 28 30  1  0
 25 31  4  0
 31 32  4  0
 32 33  1  0
  2 23  4  0
  2 32  4  0
M  CHG  1  30  -1
M  END
$$$$

     RDKit          3D

 33 37  0  0  0  0  0  0  0  0999 V2000
   -7.6410    4.9930    6.8080 C   0  0  0  0  0  0  0  0  0  1  0  0
   -7.7310    4.0530    5.7140 C   0  0  0  0  0  0  0  0  0  2  0  0
   -6.4520    5.6300    6.8680 N   0  0  0  0  0  0  0  0  0  0  0  0
   -6.2260    6.5240    7.8670 N   0  0  0  0  0  0  0  0  0  0  0  0
   -7.1930    6.7500    8.7820 C   0  0  0  0  0  0  0  0  0  0  0  0
   -8.4240    6.1170    8.7580 C   0  0  0  0  0  0  0  0  0  0  0  0
   -9.3950    6.3570    9.7450 N   0  0  0  0  0  0  0  0  0  0  0  0
  -10.5620    5.6840    9.7600 C   0  0  0  0  0  0  0  0  0  0  0  0
  -11.5770    5.6820   10.5960 N   0  0  0  0  0  0  0  0  0  0  0  0
  -12.4690    4.7490   10.1080 N   0  0  0  0  0  0  0  0  0  0  0  0
  -12.0160    4.1880    8.9920 N   0  0  0  0  0  0  0  0  0  0  0  0
  -10.8400    4.7900    8.7610 N   0  0  0  0  0  0  0  0  0  0  0  0
   -9.9950    4.4790    7.6090 C   0  0  0  0  0  0  0  0  0  0  0  0
   -8.6630    5.2070    7.7200 C   0  0  0  0  0  0  0  0  0  0  0  0
  -10.7490    4.8610    6.3730 C   0  0  0  0  0  0  0  0  0  0  0  0
  -11.0350    6.2020    6.1170 C   0  0  0  0  0  0  0  0  0  0  0  0
  -11.7370    6.5580    4.9650 C   0  0  0  0  0  0  0  0  0  0  0  0
  -12.1550    5.5730    4.0710 C   0  0  0  0  0  0  0  0  0  0  0  0
  -11.8700    4.2310    4.3270 C   0  0  0  0  0  0  0  0  0  0  0  0
  -11.1660    3.8760    5.4790 C   0  0  0  0  0  0  0  0  0  0  0  0
  -12.0160    7.8660    4.7150 O   0  0  0  0  0  0  0  0  0  0  0  0
   -6.8990    7.6510    9.7710 O   0  0  0  0  0  0  0  0  0  0  0  0
   -6.9359    2.8896    5.6087 C   0  0  0  0  0  0  0  0  0  0  0  0
   -7.0816    1.9573    4.5783 C   0  0  0  0  0  0  0  0  0  0  0  0
   -8.0824    2.1194    3.6052 C   0  0  0  0  0  0  0  0  0  0  0  0
   -8.2300    1.0994    2.4892 C   0  0  0  0  0  0  0  0  0  0  0  0
   -9.6369    0.4872    2.4863 C   0  0  0  0  0  0  0  0  0  0  0  0
   -7.8954    1.6817    1.1380 C   0  0  0  0  0  0  0  0  0  0  0  0
   -7.8864    0.9365    0.1225 O   0  0  0  0  0  0  0  0  0  0  0  0
   -7.5721    3.0267    0.9919 O   0  0  0  0  0  0  0  0  0  0  0  0
   -8.9298    3.2411    3.6812 C   0  0  0  0  0  0  0  0  0  0  0  0
   -8.7843    4.1748    4.7114 C   0  0  0  0  0  0  0  0  0  0  0  0
   -9.6019    5.2578    4.7453 F   0  0  0  0  0  0  0  0  0  0  0  0
  1  3  4  0
  1 14  4  0
  1  2  1  0
  3  4  4  0
  4  5  4  0
  5  6  4  0
  5 22  1  0
  6  7  1  0
  6 14  4  0
  7  8  1  0
  8  9  4  0
  8 12  4  0
  9 10  4  0
 10 11  4  0
 11 12  4  0
 12 13  1  0
 13 14  1  0
 13 15  1  6
 15 16  4  0
 15 20  4  0
 16 17  4  0
 17 18  4  0
 17 21  1  0
 18 19  4  0
 19 20  4  0
 23 24  4  0
 24 25  4  0
 25 26  1  0
 26 27  1  0
 26 28  1  0
 28 29  2  0
 28 30  1  0
 25 31  4  0
 31 32  4  0
 32 33  1  0
  2 23  4  0
  2 32  4  0
M  CHG  1  30  -1
M  END
$$$$

     RDKit          3D

 33 37  0  0  0  0  0  0  0  0999 V2000
   -7.6410    4.9930    6.8080 C   0  0  0  0  0  0  0  0  0  1  0  0
   -7.7310    4.0530    5.7140 C   0  0  0  0  0  0  0  0  0  2  0  0
   -6.4520    5.6300    6.8680 N   0  0  0  0  0  0  0  0  0  0  0  0
   -6.2260    6.5240    7.8670 N   0  0  0  0  0  0  0  0  0  0  0  0
   -7.1930    6.7500    8.7820 C   0  0  0  0  0  0  0  0  0  0  0  0
   -8.4240    6.1170    8.7580 C   0  0  0  0  0  0  0  0  0  0  0  0
   -9.3950    6.3570    9.7450 N   0  0  0  0  0  0  0  0  0  0  0  0
  -10.5620    5.6840    9.7600 C   0  0  0  0  0  0  0  0  0  0  0  0
  -11.5770    5.6820   10.5960 N   0  0  0  0  0  0  0  0  0  0  0  0
  -12.4690    4.7490   10.1080 N   0  0  0  0  0  0  0  0  0  0  0  0
  -12.0160    4.1880    8.9920 N   0  0  0  0  0  0  0  0  0  0  0  0
  -10.8400    4.7900    8.7610 N   0  0  0  0  0  0  0  0  0  0  0  0
   -9.9950    4.4790    7.6090 C   0  0  0  0  0  0  0  0  0  0  0  0
   -8.6630    5.2070    7.7200 C   0  0  0  0  0  0  0  0  0  0  0  0
  -10.7490    4.8610    6.3730 C   0  0  0  0  0  0  0  0  0  0  0  0
  -11.0350    6.2020    6.1170 C   0  0  0  0  0  0  0  0  0  0  0  0
  -11.7370    6.5580    4.9650 C   0  0  0  0  0  0  0  0  0  0  0  0
  -12.1550    5.5730    4.0710 C   0  0  0  0  0  0  0  0  0  0  0  0
  -11.8700    4.2310    4.3270 C   0  0  0  0  0  0  0  0  0  0  0  0
  -11.1660    3.8760    5.4790 C   0  0  0  0  0  0  0  0  0  0  0  0
  -12.0160    7.8660    4.7150 O   0  0  0  0  0  0  0  0  0  0  0  0
   -6.8990    7.6510    9.7710 O   0  0  0  0  0  0  0  0  0  0  0  0
   -6.9041    2.9190    5.5677 C   0  0  0  0  0  0  0  0  0  0  0  0
   -7.0513    1.9919    4.5335 C   0  0  0  0  0  0  0  0  0  0  0  0
   -8.0936    2.1255    3.5983 C   0  0  0  0  0  0  0  0  0  0  0  0
   -8.2485    1.1359    2.4613 C   0  0  0  0  0  0  0  0  0  0  0  0
   -7.0968    1.2892    1.4595 C   0  0  0  0  0  0  0  0  0  0  0  0
   -8.3602   -0.2710    2.9923 C   0  0  0  0  0  0  0  0  0  0  0  0
   -9.3463   -0.5907    3.7076 O   0  0  0  0  0  0  0  0  0  0  0  0
   -7.3899   -1.2258    2.7075 O   0  0  0  0  0  0  0  0  0  0  0  0
   -8.9756    3.2130    3.7119 C   0  0  0  0  0  0  0  0  0  0  0  0
   -8.8293    4.1421    4.7463 C   0  0  0  0  0  0  0  0  0  0  0  0
   -9.6801    5.1978    4.8136 F   0  0  0  0  0  0  0  0  0  0  0  0
  1  3  4  0
  1 14  4  0
  1  2  1  0
  3  4  4  0
  4  5  4  0
  5  6  4  0
  5 22  1  0
  6  7  1  0
  6 14  4  0
  7  8  1  0
  8  9  4  0
  8 12  4  0
  9 10  4  0
 10 11  4  0
 11 12  4  0
 12 13  1  0
 13 14  1  0
 13 15  1  6
 15 16  4  0
 15 20  4  0
 16 17  4  0
 17 18  4  0
 17 21  1  0
 18 19  4  0
 19 20  4  0
 23 24  4  0
 24 25  4  0
 25 26  1  0
 26 27  1  0
 26 28  1  0
 28 29  2  0
 28 30  1  0
 25 31  4  0
 31 32  4  0
 32 33  1  0
  2 23  4  0
  2 32  4  0
M  CHG  1  30  -1
M  END
$$$$

     RDKit          3D

 44 50  0  0  0  0  0  0  0  0999 V2000
   -7.6410    4.9930    6.8080 C   0  0  0  0  0  0  0  0  0  1  0  0
   -7.7310    4.0530    5.7140 C   0  0  0  0  0  0  0  0  0  2  0  0
   -6.4520    5.6300    6.8680 N   0  0  0  0  0  0  0  0  0  0  0  0
   -6.2260    6.5240    7.8670 N   0  0  0  0  0  0  0  0  0  0  0  0
   -7.1930    6.7500    8.7820 C   0  0  0  0  0  0  0  0  0  0  0  0
   -8.4240    6.1170    8.7580 C   0  0  0  0  0  0  0  0  0  0  0  0
   -9.3950    6.3570    9.7450 N   0  0  0  0  0  0  0  0  0  0  0  0
  -10.5620    5.6840    9.7600 C   0  0  0  0  0  0  0  0  0  0  0  0
  -11.5770    5.6820   10.5960 N   0  0  0  0  0  0  0  0  0  0  0  0
  -12.4690    4.7490   10.1080 N   0  0  0  0  0  0  0  0  0  0  0  0
  -12.0160    4.1880    8.9920 N   0  0  0  0  0  0  0  0  0  0  0  0
  -10.8400    4.7900    8.7610 N   0  0  0  0  0  0  0  0  0  0  0  0
   -9.9950    4.4790    7.6090 C   0  0  0  0  0  0  0  0  0  0  0  0
   -8.6630    5.2070    7.7200 C   0  0  0  0  0  0  0  0  0  0  0  0
  -10.7490    4.8610    6.3730 C   0  0  0  0  0  0  0  0  0  0  0  0
  -11.0350    6.2020    6.1170 C   0  0  0  0  0  0  0  0  0  0  0  0
  -11.7370    6.5580    4.9650 C   0  0  0  0  0  0  0  0  0  0  0  0
  -12.1550    5.5730    4.0710 C   0  0  0  0  0  0  0  0  0  0  0  0
  -11.8700    4.2310    4.3270 C   0  0  0  0  0  0  0  0  0  0  0  0
  -11.1660    3.8760    5.4790 C   0  0  0  0  0  0  0  0  0  0  0  0
  -12.0160    7.8660    4.7150 O   0  0  0  0  0  0  0  0  0  0  0  0
   -6.8990    7.6510    9.7710 O   0  0  0  0  0  0  0  0  0  0  0  0
   -6.8377    2.9941    5.4472 C   0  0  0  0  0  0  0  0  0  0  0  0
   -7.1795    2.1321    4.4155 C   0  0  0  0  0  0  0  0  0  0  0  0
   -8.6548    2.6270    3.7884 S   0  0  0  0  0  0  0  0  0  0  0  0
   -8.8864    3.9384    4.8191 C   0  0  0  0  0  0  0  0  0  0  0  0
  -10.0085    4.8923    4.7009 C   0  0  0  0  0  0  0  0  0  0  0  0
   -9.9223    6.0344    5.2271 O   0  0  0  0  0  0  0  0  0  0  0  0
  -11.1992    4.5160    3.9907 N   0  0  0  0  0  0  0  0  0  0  0  0
  -12.1627    5.4551    3.4826 C   0  0  0  0  0  0  0  0  0  0  0  0
  -11.7754    6.7281    3.0243 C   0  0  0  0  0  0  0  0  0  0  0  0
  -12.7260    7.6077    2.5005 C   0  0  0  0  0  0  0  0  0  0  0  0
  -14.0659    7.2235    2.4148 C   0  0  0  0  0  0  0  0  0  0  0  0
  -14.4622    5.9522    2.8469 C   0  0  0  0  0  0  0  0  0  0  0  0
  -16.1480    5.4688    2.6892 S   0  0  0  0  0  0  0  0  0  0  0  0
  -16.3438    4.0405    3.1164 O   0  0  0  0  0  0  0  0  0  0  0  0
  -16.9901    6.3526    3.5650 O   0  0  0  0  0  0  0  0  0  0  0  0
  -16.6556    5.6506    1.0410 N   0  0  0  0  0  0  0  0  0  0  0  0
  -16.1437    5.0006    0.0393 C   0  0  0  0  0  0  0  0  0  0  0  0
  -16.5971    5.1889   -1.3536 C   0  0  0  0  0  0  0  0  0  0  0  0
  -15.6995    4.2341   -2.1578 C   0  0  0  0  0  0  0  0  0  0  0  0
  -14.7868    3.5040   -1.1532 C   0  0  0  0  0  0  0  0  0  0  0  0
  -15.1122    4.0385    0.1541 N   0  0  0  0  0  0  0  0  0  0  0  0
  -13.5084    5.0695    3.3749 C   0  0  0  0  0  0  0  0  0  0  0  0
  1  3  4  0
  1 14  4  0
  1  2  1  0
  3  4  4  0
  4  5  4  0
  5  6  4  0
  5 22  1  0
  6  7  1  0
  6 14  4  0
  7  8  1  0
  8  9  4  0
  8 12  4  0
  9 10  4  0
 10 11  4  0
 11 12  4  0
 12 13  1  0
 13 14  1  0
 13 15  1  6
 15 16  4  0
 15 20  4  0
 16 17  4  0
 17 18  4  0
 17 21  1  0
 18 19  4  0
 19 20  4  0
 23 24  4  0
 24 25  4  0
 25 26  4  0
 26 27  1  0
 27 28  2  0
 27 29  1  0
 29 30  1  0
 30 31  4  0
 31 32  4  0
 32 33  4  0
 33 34  4  0
 34 35  1  0
 35 36  2  0
 35 37  2  0
 35 38  1  0
 38 39  2  3
 39 40  1  0
 40 41  1  0
 41 42  1  0
 42 43  1  0
 34 44  4  0
 44 30  4  0
 43 39  1  0
  2 23  4  0
  2 26  4  0
M  END
$$$$

     RDKit          3D

 44 50  0  0  0  0  0  0  0  0999 V2000
   -7.6410    4.9930    6.8080 C   0  0  0  0  0  0  0  0  0  1  0  0
   -7.7310    4.0530    5.7140 C   0  0  0  0  0  0  0  0  0  2  0  0
   -6.4520    5.6300    6.8680 N   0  0  0  0  0  0  0  0  0  0  0  0
   -6.2260    6.5240    7.8670 N   0  0  0  0  0  0  0  0  0  0  0  0
   -7.1930    6.7500    8.7820 C   0  0  0  0  0  0  0  0  0  0  0  0
   -8.4240    6.1170    8.7580 C   0  0  0  0  0  0  0  0  0  0  0  0
   -9.3950    6.3570    9.7450 N   0  0  0  0  0  0  0  0  0  0  0  0
  -10.5620    5.6840    9.7600 C   0  0  0  0  0  0  0  0  0  0  0  0
  -11.5770    5.6820   10.5960 N   0  0  0  0  0  0  0  0  0  0  0  0
  -12.4690    4.7490   10.1080 N   0  0  0  0  0  0  0  0  0  0  0  0
  -12.0160    4.1880    8.9920 N   0  0  0  0  0  0  0  0  0  0  0  0
  -10.8400    4.7900    8.7610 N   0  0  0  0  0  0  0  0  0  0  0  0
   -9.9950    4.4790    7.6090 C   0  0  0  0  0  0  0  0  0  0  0  0
   -8.6630    5.2070    7.7200 C   0  0  0  0  0  0  0  0  0  0  0  0
  -10.7490    4.8610    6.3730 C   0  0  0  0  0  0  0  0  0  0  0  0
  -11.0350    6.2020    6.1170 C   0  0  0  0  0  0  0  0  0  0  0  0
  -11.7370    6.5580    4.9650 C   0  0  0  0  0  0  0  0  0  0  0  0
  -12.1550    5.5730    4.0710 C   0  0  0  0  0  0  0  0  0  0  0  0
  -11.8700    4.2310    4.3270 C   0  0  0  0  0  0  0  0  0  0  0  0
  -11.1660    3.8760    5.4790 C   0  0  0  0  0  0  0  0  0  0  0  0
  -12.0160    7.8660    4.7150 O   0  0  0  0  0  0  0  0  0  0  0  0
   -6.8990    7.6510    9.7710 O   0  0  0  0  0  0  0  0  0  0  0  0
   -6.8099    3.0352    5.3944 C   0  0  0  0  0  0  0  0  0  0  0  0
   -7.1603    2.1732    4.3655 C   0  0  0  0  0  0  0  0  0  0  0  0
   -8.6795    2.6151    3.8063 S   0  0  0  0  0  0  0  0  0  0  0  0
   -8.9207    3.8980    4.8698 C   0  0  0  0  0  0  0  0  0  0  0  0
  -10.0766    4.8174    4.8150 C   0  0  0  0  0  0  0  0  0  0  0  0
   -9.9173    6.0310    5.1125 O   0  0  0  0  0  0  0  0  0  0  0  0
  -11.3599    4.3811    4.3435 N   0  0  0  0  0  0  0  0  0  0  0  0
  -11.8995    3.0665    4.5625 C   0  0  0  0  0  0  0  0  0  0  0  0
  -11.5570    2.3151    5.7013 C   0  0  0  0  0  0  0  0  0  0  0  0
  -12.1073    1.0466    5.8997 C   0  0  0  0  0  0  0  0  0  0  0  0
  -13.0101    0.5210    4.9726 C   0  0  0  0  0  0  0  0  0  0  0  0
  -13.3766    1.2667    3.8454 C   0  0  0  0  0  0  0  0  0  0  0  0
  -14.5160    0.5872    2.6880 S   0  0  0  0  0  0  0  0  0  0  0  0
  -15.7936    0.2435    3.4016 O   0  0  0  0  0  0  0  0  0  0  0  0
  -13.9132   -0.6497    2.0825 O   0  0  0  0  0  0  0  0  0  0  0  0
  -14.8492    1.7400    1.4357 N   0  0  0  0  0  0  0  0  0  0  0  0
  -15.6277    1.5162    0.4207 C   0  0  0  0  0  0  0  0  0  0  0  0
  -15.8807    2.5205   -0.6313 C   0  0  0  0  0  0  0  0  0  0  0  0
  -16.8471    1.8047   -1.5875 C   0  0  0  0  0  0  0  0  0  0  0  0
  -17.0858    0.3887   -1.0279 C   0  0  0  0  0  0  0  0  0  0  0  0
  -16.3159    0.3006    0.1958 N   0  0  0  0  0  0  0  0  0  0  0  0
  -12.8246    2.5411    3.6483 C   0  0  0  0  0  0  0  0  0  0  0  0
  1  3  4  0
  1 14  4  0
  1  2  1  0
  3  4  4  0
  4  5  4  0
  5  6  4  0
  5 22  1  0
  6  7  1  0
  6 14  4  0
  7  8  1  0
  8  9  4  0
  8 12  4  0
  9 10  4  0
 10 11  4  0
 11 12  4  0
 12 13  1  0
 13 14  1  0
 13 15  1  6
 15 16  4  0
 15 20  4  0
 16 17  4  0
 17 18  4  0
 17 21  1  0
 18 19  4  0
 19 20  4  0
 23 24  4  0
 24 25  4  0
 25 26  4  0
 26 27  1  0
 27 28  2  0
 27 29  1  0
 29 30  1  0
 30 31  4  0
 31 32  4  0
 32 33  4  0
 33 34  4  0
 34 35  1  0
 35 36  2  0
 35 37  2  0
 35 38  1  0
 38 39  2  3
 39 40  1  0
 40 41  1  0
 41 42  1  0
 42 43  1  0
 34 44  4  0
 44 30  4  0
 43 39  1  0
  2 23  4  0
  2 26  4  0
M  END
$$$$

     RDKit          3D

 44 50  0  0  0  0  0  0  0  0999 V2000
   -7.6410    4.9930    6.8080 C   0  0  0  0  0  0  0  0  0  1  0  0
   -7.7310    4.0530    5.7140 C   0  0  0  0  0  0  0  0  0  2  0  0
   -6.4520    5.6300    6.8680 N   0  0  0  0  0  0  0  0  0  0  0  0
   -6.2260    6.5240    7.8670 N   0  0  0  0  0  0  0  0  0  0  0  0
   -7.1930    6.7500    8.7820 C   0  0  0  0  0  0  0  0  0  0  0  0
   -8.4240    6.1170    8.7580 C   0  0  0  0  0  0  0  0  0  0  0  0
   -9.3950    6.3570    9.7450 N   0  0  0  0  0  0  0  0  0  0  0  0
  -10.5620    5.6840    9.7600 C   0  0  0  0  0  0  0  0  0  0  0  0
  -11.5770    5.6820   10.5960 N   0  0  0  0  0  0  0  0  0  0  0  0
  -12.4690    4.7490   10.1080 N   0  0  0  0  0  0  0  0  0  0  0  0
  -12.0160    4.1880    8.9920 N   0  0  0  0  0  0  0  0  0  0  0  0
  -10.8400    4.7900    8.7610 N   0  0  0  0  0  0  0  0  0  0  0  0
   -9.9950    4.4790    7.6090 C   0  0  0  0  0  0  0  0  0  0  0  0
   -8.6630    5.2070    7.7200 C   0  0  0  0  0  0  0  0  0  0  0  0
  -10.7490    4.8610    6.3730 C   0  0  0  0  0  0  0  0  0  0  0  0
  -11.0350    6.2020    6.1170 C   0  0  0  0  0  0  0  0  0  0  0  0
  -11.7370    6.5580    4.9650 C   0  0  0  0  0  0  0  0  0  0  0  0
  -12.1550    5.5730    4.0710 C   0  0  0  0  0  0  0  0  0  0  0  0
  -11.8700    4.2310    4.3270 C   0  0  0  0  0  0  0  0  0  0  0  0
  -11.1660    3.8760    5.4790 C   0  0  0  0  0  0  0  0  0  0  0  0
  -12.0160    7.8660    4.7150 O   0  0  0  0  0  0  0  0  0  0  0  0
   -6.8990    7.6510    9.7710 O   0  0  0  0  0  0  0  0  0  0  0  0
   -6.8574    3.0654    5.4110 N   0  0  0  0  0  0  0  0  0  0  0  0
   -7.2874    2.4277    4.3354 N   0  0  0  0  0  0  0  0  0  0  0  0
   -8.4475    2.9882    3.9576 C   0  0  0  0  0  0  0  0  0  0  0  0
   -9.2619    2.5506    2.6034 S   0  0  0  0  0  0  0  0  0  0  0  0
   -8.8010    3.9917    4.7915 N   0  0  0  0  0  0  0  0  0  0  0  0
   -9.8738    4.9819    4.6098 C   0  0  0  0  0  0  0  0  0  0  0  0
   -9.3239    6.3040    4.0598 C   0  0  0  0  0  0  0  0  0  0  0  0
   -8.6537    6.1033    2.7331 C   0  0  0  0  0  0  0  0  0  0  0  0
   -9.3593    6.0328    1.6905 O   0  0  0  0  0  0  0  0  0  0  0  0
   -7.2305    5.9159    2.6719 N   0  0  0  0  0  0  0  0  0  0  0  0
   -6.5186    5.6263    1.4595 C   0  0  0  0  0  0  0  0  0  0  0  0
   -5.4832    4.6849    1.4718 C   0  0  0  0  0  0  0  0  0  0  0  0
   -4.7721    4.4079    0.3037 C   0  0  0  0  0  0  0  0  0  0  0  0
   -5.0969    5.0869   -0.8806 C   0  0  0  0  0  0  0  0  0  0  0  0
   -4.3725    4.8366   -2.0992 N   0  0  0  0  0  0  0  0  0  0  0  0
   -4.2069    5.9243   -3.0683 C   0  0  0  0  0  0  0  0  0  0  0  0
   -2.9824    5.6552   -3.9491 C   0  0  0  0  0  0  0  0  0  0  0  0
   -3.0474    4.3628   -4.5215 O   0  0  0  0  0  0  0  0  0  0  0  0
   -2.9768    3.3845   -3.5013 C   0  0  0  0  0  0  0  0  0  0  0  0
   -4.2035    3.4630   -2.5873 C   0  0  0  0  0  0  0  0  0  0  0  0
   -6.0841    6.0260   -0.8603 N   0  0  0  0  0  0  0  0  0  0  0  0
   -6.7939    6.3071    0.2643 C   0  0  0  0  0  0  0  0  0  0  0  0
  1  3  4  0
  1 14  4  0
  1  2  1  0
  3  4  4  0
  4  5  4  0
  5  6  4  0
  5 22  1  0
  6  7  1  0
  6 14  4  0
  7  8  1  0
  8  9  4  0
  8 12  4  0
  9 10  4  0
 10 11  4  0
 11 12  4  0
 12 13  1  0
 13 14  1  0
 13 15  1  6
 15 16  4  0
 15 20  4  0
 16 17  4  0
 17 18  4  0
 17 21  1  0
 18 19  4  0
 19 20  4  0
 23 24  4  0
 24 25  4  0
 25 26  2  0
 25 27  4  0
 27 28  1  0
 28 29  1  0
 29 30  1  0
 30 31  2  0
 30 32  1  0
 32 33  1  0
 33 34  4  0
 34 35  4  0
 35 36  4  0
 36 37  1  0
 37 38  1  0
 38 39  1  0
 39 40  1  0
 40 41  1  0
 41 42  1  0
 36 43  4  0
 43 44  4  0
 44 33  4  0
 42 37  1  0
  2 23  4  0
  2 27  4  0
M  END
$$$$

     RDKit          3D

 44 50  0  0  0  0  0  0  0  0999 V2000
   -7.6410    4.9930    6.8080 C   0  0  0  0  0  0  0  0  0  1  0  0
   -7.7310    4.0530    5.7140 C   0  0  0  0  0  0  0  0  0  2  0  0
   -6.4520    5.6300    6.8680 N   0  0  0  0  0  0  0  0  0  0  0  0
   -6.2260    6.5240    7.8670 N   0  0  0  0  0  0  0  0  0  0  0  0
   -7.1930    6.7500    8.7820 C   0  0  0  0  0  0  0  0  0  0  0  0
   -8.4240    6.1170    8.7580 C   0  0  0  0  0  0  0  0  0  0  0  0
   -9.3950    6.3570    9.7450 N   0  0  0  0  0  0  0  0  0  0  0  0
  -10.5620    5.6840    9.7600 C   0  0  0  0  0  0  0  0  0  0  0  0
  -11.5770    5.6820   10.5960 N   0  0  0  0  0  0  0  0  0  0  0  0
  -12.4690    4.7490   10.1080 N   0  0  0  0  0  0  0  0  0  0  0  0
  -12.0160    4.1880    8.9920 N   0  0  0  0  0  0  0  0  0  0  0  0
  -10.8400    4.7900    8.7610 N   0  0  0  0  0  0  0  0  0  0  0  0
   -9.9950    4.4790    7.6090 C   0  0  0  0  0  0  0  0  0  0  0  0
   -8.6630    5.2070    7.7200 C   0  0  0  0  0  0  0  0  0  0  0  0
  -10.7490    4.8610    6.3730 C   0  0  0  0  0  0  0  0  0  0  0  0
  -11.0350    6.2020    6.1170 C   0  0  0  0  0  0  0  0  0  0  0  0
  -11.7370    6.5580    4.9650 C   0  0  0  0  0  0  0  0  0  0  0  0
  -12.1550    5.5730    4.0710 C   0  0  0  0  0  0  0  0  0  0  0  0
  -11.8700    4.2310    4.3270 C   0  0  0  0  0  0  0  0  0  0  0  0
  -11.1660    3.8760    5.4790 C   0  0  0  0  0  0  0  0  0  0  0  0
  -12.0160    7.8660    4.7150 O   0  0  0  0  0  0  0  0  0  0  0  0
   -6.8990    7.6510    9.7710 O   0  0  0  0  0  0  0  0  0  0  0  0
   -6.8555    3.0669    5.4114 N   0  0  0  0  0  0  0  0  0  0  0  0
   -7.2924    2.4165    4.3461 N   0  0  0  0  0  0  0  0  0  0  0  0
   -8.4599    2.9659    3.9754 C   0  0  0  0  0  0  0  0  0  0  0  0
   -9.3081    2.4798    2.6592 S   0  0  0  0  0  0  0  0  0  0  0  0
   -8.8069    3.9801    4.7987 N   0  0  0  0  0  0  0  0  0  0  0  0
   -9.9184    4.9313    4.6443 C   0  0  0  0  0  0  0  0  0  0  0  0
   -9.4318    6.3152    4.1917 C   0  0  0  0  0  0  0  0  0  0  0  0
   -8.7428    6.2597    2.8592 C   0  0  0  0  0  0  0  0  0  0  0  0
   -9.3437    6.6810    1.8341 O   0  0  0  0  0  0  0  0  0  0  0  0
   -7.3860    5.7970    2.7712 N   0  0  0  0  0  0  0  0  0  0  0  0
   -6.7507    5.3565    1.5582 C   0  0  0  0  0  0  0  0  0  0  0  0
   -7.4808    4.8081    0.4915 C   0  0  0  0  0  0  0  0  0  0  0  0
   -6.8204    4.3584   -0.6529 C   0  0  0  0  0  0  0  0  0  0  0  0
   -5.4207    4.4376   -0.7222 C   0  0  0  0  0  0  0  0  0  0  0  0
   -4.7057    3.9964   -1.8924 N   0  0  0  0  0  0  0  0  0  0  0  0
   -5.0005    2.6932   -2.5079 C   0  0  0  0  0  0  0  0  0  0  0  0
   -4.6816    2.6939   -4.0225 C   0  0  0  0  0  0  0  0  0  0  0  0
   -4.0195    3.8654   -4.4682 O   0  0  0  0  0  0  0  0  0  0  0  0
   -2.9447    4.1703   -3.6069 C   0  0  0  0  0  0  0  0  0  0  0  0
   -3.4931    4.7215   -2.2910 C   0  0  0  0  0  0  0  0  0  0  0  0
   -4.7339    4.9709    0.3261 N   0  0  0  0  0  0  0  0  0  0  0  0
   -5.3555    5.4153    1.4500 C   0  0  0  0  0  0  0  0  0  0  0  0
  1  3  4  0
  1 14  4  0
  1  2  1  0
  3  4  4  0
  4  5  4  0
  5  6  4  0
  5 22  1  0
  6  7  1  0
  6 14  4  0
  7  8  1  0
  8  9  4  0
  8 12  4  0
  9 10  4  0
 10 11  4  0
 11 12  4  0
 12 13  1  0
 13 14  1  0
 13 15  1  6
 15 16  4  0
 15 20  4  0
 16 17  4  0
 17 18  4  0
 17 21  1  0
 18 19  4  0
 19 20  4  0
 23 24  4  0
 24 25  4  0
 25 26  2  0
 25 27  4  0
 27 28  1  0
 28 29  1  0
 29 30  1  0
 30 31  2  0
 30 32  1  0
 32 33  1  0
 33 34  4  0
 34 35  4  0
 35 36  4  0
 36 37  1  0
 37 38  1  0
 38 39  1  0
 39 40  1  0
 40 41  1  0
 41 42  1  0
 36 43  4  0
 43 44  4  0
 44 33  4  0
 42 37  1  0
  2 23  4  0
  2 27  4  0
M  END
$$$$

     RDKit          3D

 37 42  0  0  0  0  0  0  0  0999 V2000
   -7.6410    4.9930    6.8080 C   0  0  0  0  0  0  0  0  0  1  0  0
   -7.7310    4.0530    5.7140 C   0  0  0  0  0  0  0  0  0  2  0  0
   -6.4520    5.6300    6.8680 N   0  0  0  0  0  0  0  0  0  0  0  0
   -6.2260    6.5240    7.8670 N   0  0  0  0  0  0  0  0  0  0  0  0
   -7.1930    6.7500    8.7820 C   0  0  0  0  0  0  0  0  0  0  0  0
   -8.4240    6.1170    8.7580 C   0  0  0  0  0  0  0  0  0  0  0  0
   -9.3950    6.3570    9.7450 N   0  0  0  0  0  0  0  0  0  0  0  0
  -10.5620    5.6840    9.7600 C   0  0  0  0  0  0  0  0  0  0  0  0
  -11.5770    5.6820   10.5960 N   0  0  0  0  0  0  0  0  0  0  0  0
  -12.4690    4.7490   10.1080 N   0  0  0  0  0  0  0  0  0  0  0  0
  -12.0160    4.1880    8.9920 N   0  0  0  0  0  0  0  0  0  0  0  0
  -10.8400    4.7900    8.7610 N   0  0  0  0  0  0  0  0  0  0  0  0
   -9.9950    4.4790    7.6090 C   0  0  0  0  0  0  0  0  0  0  0  0
   -8.6630    5.2070    7.7200 C   0  0  0  0  0  0  0  0  0  0  0  0
  -10.7490    4.8610    6.3730 C   0  0  0  0  0  0  0  0  0  0  0  0
  -11.0350    6.2020    6.1170 C   0  0  0  0  0  0  0  0  0  0  0  0
  -11.7370    6.5580    4.9650 C   0  0  0  0  0  0  0  0  0  0  0  0
  -12.1550    5.5730    4.0710 C   0  0  0  0  0  0  0  0  0  0  0  0
  -11.8700    4.2310    4.3270 C   0  0  0  0  0  0  0  0  0  0  0  0
  -11.1660    3.8760    5.4790 C   0  0  0  0  0  0  0  0  0  0  0  0
  -12.0160    7.8660    4.7150 O   0  0  0  0  0  0  0  0  0  0  0  0
   -6.8990    7.6510    9.7710 O   0  0  0  0  0  0  0  0  0  0  0  0
   -6.7599    3.1773    5.3407 N   0  0  0  0  0  0  0  0  0  0  0  0
   -7.0910    2.3579    4.3190 C   0  0  0  0  0  0  0  0  0  0  0  0
   -6.2086    1.3818    3.7500 N   0  0  0  0  0  0  0  0  0  0  0  0
   -4.8607    1.1623    4.2035 C   0  0  0  0  0  0  0  0  0  0  0  0
   -4.3936    1.8440    5.1560 O   0  0  0  0  0  0  0  0  0  0  0  0
   -3.9611    0.1526    3.5312 C   0  0  0  0  0  0  0  0  0  0  0  0
   -4.6405   -1.2076    3.3335 C   0  0  0  0  0  0  0  0  0  0  0  0
   -3.4510    0.6800    2.2622 N   0  0  0  0  0  0  0  0  0  0  0  0
   -4.1610    0.9517    1.1478 C   0  0  0  0  0  0  0  0  0  0  0  0
   -3.2990    1.4397    0.1907 C   0  0  0  0  0  0  0  0  0  0  0  0
   -2.0600    1.4395    0.8001 C   0  0  0  0  0  0  0  0  0  0  0  0
   -2.1764    0.9745    2.0587 N   0  0  0  0  0  0  0  0  0  0  0  0
   -8.6607    2.6254    3.7858 S   0  0  0  0  0  0  0  0  0  0  0  0
   -8.9383    3.8525    4.9046 C   0  0  0  0  0  0  0  0  0  0  0  0
  -10.2128    4.6310    4.9895 C   0  0  0  0  0  0  0  0  0  0  0  0
  1  3  4  0
  1 14  4  0
  1  2  1  0
  3  4  4  0
  4  5  4  0
  5  6  4  0
  5 22  1  0
  6  7  1  0
  6 14  4  0
  7  8  1  0
  8  9  4  0
  8 12  4  0
  9 10  4  0
 10 11  4  0
 11 12  4  0
 12 13  1  0
 13 14  1  0
 13 15  1  6
 15 16  4  0
 15 20  4  0
 16 17  4  0
 17 18  4  0
 17 21  1  0
 18 19  4  0
 19 20  4  0
 23 24  4  0
 24 25  1  0
 25 26  1  0
 26 27  2  0
 26 28  1  0
 28 29  1  0
 28 30  1  0
 30 31  4  0
 31 32  4  0
 32 33  4  0
 33 34  4  0
 24 35  4  0
 35 36  4  0
 36 37  1  0
 34 30  4  0
  2 23  4  0
  2 36  4  0
M  END
$$$$

     RDKit          3D

 37 42  0  0  0  0  0  0  0  0999 V2000
   -7.6410    4.9930    6.8080 C   0  0  0  0  0  0  0  0  0  1  0  0
   -7.7310    4.0530    5.7140 C   0  0  0  0  0  0  0  0  0  2  0  0
   -6.4520    5.6300    6.8680 N   0  0  0  0  0  0  0  0  0  0  0  0
   -6.2260    6.5240    7.8670 N   0  0  0  0  0  0  0  0  0  0  0  0
   -7.1930    6.7500    8.7820 C   0  0  0  0  0  0  0  0  0  0  0  0
   -8.4240    6.1170    8.7580 C   0  0  0  0  0  0  0  0  0  0  0  0
   -9.3950    6.3570    9.7450 N   0  0  0  0  0  0  0  0  0  0  0  0
  -10.5620    5.6840    9.7600 C   0  0  0  0  0  0  0  0  0  0  0  0
  -11.5770    5.6820   10.5960 N   0  0  0  0  0  0  0  0  0  0  0  0
  -12.4690    4.7490   10.1080 N   0  0  0  0  0  0  0  0  0  0  0  0
  -12.0160    4.1880    8.9920 N   0  0  0  0  0  0  0  0  0  0  0  0
  -10.8400    4.7900    8.7610 N   0  0  0  0  0  0  0  0  0  0  0  0
   -9.9950    4.4790    7.6090 C   0  0  0  0  0  0  0  0  0  0  0  0
   -8.6630    5.2070    7.7200 C   0  0  0  0  0  0  0  0  0  0  0  0
  -10.7490    4.8610    6.3730 C   0  0  0  0  0  0  0  0  0  0  0  0
  -11.0350    6.2020    6.1170 C   0  0  0  0  0  0  0  0  0  0  0  0
  -11.7370    6.5580    4.9650 C   0  0  0  0  0  0  0  0  0  0  0  0
  -12.1550    5.5730    4.0710 C   0  0  0  0  0  0  0  0  0  0  0  0
  -11.8700    4.2310    4.3270 C   0  0  0  0  0  0  0  0  0  0  0  0
  -11.1660    3.8760    5.4790 C   0  0  0  0  0  0  0  0  0  0  0  0
  -12.0160    7.8660    4.7150 O   0  0  0  0  0  0  0  0  0  0  0  0
   -6.8990    7.6510    9.7710 O   0  0  0  0  0  0  0  0  0  0  0  0
   -6.7613    3.1738    5.3432 N   0  0  0  0  0  0  0  0  0  0  0  0
   -7.0843    2.3567    4.3175 C   0  0  0  0  0  0  0  0  0  0  0  0
   -6.1723    1.3748    3.8033 N   0  0  0  0  0  0  0  0  0  0  0  0
   -6.4082    0.5591    2.6439 C   0  0  0  0  0  0  0  0  0  0  0  0
   -7.3979    0.7762    1.8932 O   0  0  0  0  0  0  0  0  0  0  0  0
   -5.4237   -0.5186    2.2743 C   0  0  0  0  0  0  0  0  0  0  0  0
   -4.4072    0.0308    1.2671 C   0  0  0  0  0  0  0  0  0  0  0  0
   -6.1298   -1.6935    1.7475 N   0  0  0  0  0  0  0  0  0  0  0  0
   -6.8900   -2.5354    2.4743 C   0  0  0  0  0  0  0  0  0  0  0  0
   -7.3989   -3.5000    1.6325 C   0  0  0  0  0  0  0  0  0  0  0  0
   -6.8999   -3.1771    0.3855 C   0  0  0  0  0  0  0  0  0  0  0  0
   -6.1323   -2.0742    0.4783 N   0  0  0  0  0  0  0  0  0  0  0  0
   -8.6606    2.6268    3.7881 S   0  0  0  0  0  0  0  0  0  0  0  0
   -8.9376    3.8554    4.9034 C   0  0  0  0  0  0  0  0  0  0  0  0
  -10.2106    4.6367    4.9860 C   0  0  0  0  0  0  0  0  0  0  0  0
  1  3  4  0
  1 14  4  0
  1  2  1  0
  3  4  4  0
  4  5  4  0
  5  6  4  0
  5 22  1  0
  6  7  1  0
  6 14  4  0
  7  8  1  0
  8  9  4  0
  8 12  4  0
  9 10  4  0
 10 11  4  0
 11 12  4  0
 12 13  1  0
 13 14  1  0
 13 15  1  6
 15 16  4  0
 15 20  4  0
 16 17  4  0
 17 18  4  0
 17 21  1  0
 18 19  4  0
 19 20  4  0
 23 24  4  0
 24 25  1  0
 25 26  1  0
 26 27  2  0
 26 28  1  0
 28 29  1  0
 28 30  1  0
 30 31  4  0
 31 32  4  0
 32 33  4  0
 33 34  4  0
 24 35  4  0
 35 36  4  0
 36 37  1  0
 34 30  4  0
  2 23  4  0
  2 36  4  0
M  END
$$$$

     RDKit          3D

 30 35  0  0  0  0  0  0  0  0999 V2000
   -7.6410    4.9930    6.8080 C   0  0  0  0  0  0  0  0  0  1  0  0
   -7.7310    4.0530    5.7140 C   0  0  0  0  0  0  0  0  0  2  0  0
   -6.4520    5.6300    6.8680 N   0  0  0  0  0  0  0  0  0  0  0  0
   -6.2260    6.5240    7.8670 N   0  0  0  0  0  0  0  0  0  0  0  0
   -7.1930    6.7500    8.7820 C   0  0  0  0  0  0  0  0  0  0  0  0
   -8.4240    6.1170    8.7580 C   0  0  0  0  0  0  0  0  0  0  0  0
   -9.3950    6.3570    9.7450 N   0  0  0  0  0  0  0  0  0  0  0  0
  -10.5620    5.6840    9.7600 C   0  0  0  0  0  0  0  0  0  0  0  0
  -11.5770    5.6820   10.5960 N   0  0  0  0  0  0  0  0  0  0  0  0
  -12.4690    4.7490   10.1080 N   0  0  0  0  0  0  0  0  0  0  0  0
  -12.0160    4.1880    8.9920 N   0  0  0  0  0  0  0  0  0  0  0  0
  -10.8400    4.7900    8.7610 N   0  0  0  0  0  0  0  0  0  0  0  0
   -9.9950    4.4790    7.6090 C   0  0  0  0  0  0  0  0  0  0  0  0
   -8.6630    5.2070    7.7200 C   0  0  0  0  0  0  0  0  0  0  0  0
  -10.7490    4.8610    6.3730 C   0  0  0  0  0  0  0  0  0  0  0  0
  -11.0350    6.2020    6.1170 C   0  0  0  0  0  0  0  0  0  0  0  0
  -11.7370    6.5580    4.9650 C   0  0  0  0  0  0  0  0  0  0  0  0
  -12.1550    5.5730    4.0710 C   0  0  0  0  0  0  0  0  0  0  0  0
  -11.8700    4.2310    4.3270 C   0  0  0  0  0  0  0  0  0  0  0  0
  -11.1660    3.8760    5.4790 C   0  0  0  0  0  0  0  0  0  0  0  0
  -12.0160    7.8660    4.7150 O   0  0  0  0  0  0  0  0  0  0  0  0
   -6.8990    7.6510    9.7710 O   0  0  0  0  0  0  0  0  0  0  0  0
   -6.6672    3.2802    5.2075 C   0  0  0  0  0  0  0  0  0  0  0  0
   -6.8230    2.3500    4.1571 C   0  0  0  0  0  0  0  0  0  0  0  0
   -8.0824    2.1475    3.5685 C   0  0  0  0  0  0  0  0  0  0  0  0
   -9.1520    2.8934    4.0521 C   0  0  0  0  0  0  0  0  0  0  0  0
   -9.0100    3.7883    5.0663 C   0  0  0  0  0  0  0  0  0  0  0  0
  -10.2304    4.3955    5.3032 O   0  0  0  0  0  0  0  0  0  0  0  0
  -11.1939    3.8404    4.3988 C   0  0  0  0  0  0  0  0  0  0  0  0
  -10.4635    2.8864    3.6178 O   0  0  0  0  0  0  0  0  0  0  0  0
  1  3  4  0
  1 14  4  0
  1  2  1  0
  3  4  4  0
  4  5  4  0
  5  6  4  0
  5 22  1  0
  6  7  1  0
  6 14  4  0
  7  8  1  0
  8  9  4  0
  8 12  4  0
  9 10  4  0
 10 11  4  0
 11 12  4  0
 12 13  1  0
 13 14  1  0
 13 15  1  6
 15 16  4  0
 15 20  4  0
 16 17  4  0
 17 18  4  0
 17 21  1  0
 18 19  4  0
 19 20  4  0
 23 24  4  0
 24 25  4  0
 25 26  4  0
 26 27  4  0
 27 28  1  0
 28 29  1  0
 29 30  1  0
 30 26  1  0
  2 23  4  0
  2 27  4  0
M  END
$$$$

     RDKit          3D

 46 53  0  0  0  0  0  0  0  0999 V2000
   -7.6410    4.9930    6.8080 C   0  0  0  0  0  0  0  0  0  1  0  0
   -7.7310    4.0530    5.7140 C   0  0  0  0  0  0  0  0  0  2  0  0
   -6.4520    5.6300    6.8680 N   0  0  0  0  0  0  0  0  0  0  0  0
   -6.2260    6.5240    7.8670 N   0  0  0  0  0  0  0  0  0  0  0  0
   -7.1930    6.7500    8.7820 C   0  0  0  0  0  0  0  0  0  0  0  0
   -8.4240    6.1170    8.7580 C   0  0  0  0  0  0  0  0  0  0  0  0
   -9.3950    6.3570    9.7450 N   0  0  0  0  0  0  0  0  0  0  0  0
  -10.5620    5.6840    9.7600 C   0  0  0  0  0  0  0  0  0  0  0  0
  -11.5770    5.6820   10.5960 N   0  0  0  0  0  0  0  0  0  0  0  0
  -12.4690    4.7490   10.1080 N   0  0  0  0  0  0  0  0  0  0  0  0
  -12.0160    4.1880    8.9920 N   0  0  0  0  0  0  0  0  0  0  0  0
  -10.8400    4.7900    8.7610 N   0  0  0  0  0  0  0  0  0  0  0  0
   -9.9950    4.4790    7.6090 C   0  0  0  0  0  0  0  0  0  0  0  0
   -8.6630    5.2070    7.7200 C   0  0  0  0  0  0  0  0  0  0  0  0
  -10.7490    4.8610    6.3730 C   0  0  0  0  0  0  0  0  0  0  0  0
  -11.0350    6.2020    6.1170 C   0  0  0  0  0  0  0  0  0  0  0  0
  -11.7370    6.5580    4.9650 C   0  0  0  0  0  0  0  0  0  0  0  0
  -12.1550    5.5730    4.0710 C   0  0  0  0  0  0  0  0  0  0  0  0
  -11.8700    4.2310    4.3270 C   0  0  0  0  0  0  0  0  0  0  0  0
  -11.1660    3.8760    5.4790 C   0  0  0  0  0  0  0  0  0  0  0  0
  -12.0160    7.8660    4.7150 O   0  0  0  0  0  0  0  0  0  0  0  0
   -6.8990    7.6510    9.7710 O   0  0  0  0  0  0  0  0  0  0  0  0
   -6.7792    3.2335    5.2282 N   0  0  0  0  0  0  0  0  0  0  0  0
   -7.2368    2.4696    4.2419 N   0  0  0  0  0  0  0  0  0  0  0  0
   -6.3363    1.5659    3.5270 C   0  0  0  0  0  0  0  0  0  0  0  0
   -6.3411    0.2061    4.1671 C   0  0  0  0  0  0  0  0  0  0  0  0
   -7.4308   -0.4094    4.3188 O   0  0  0  0  0  0  0  0  0  0  0  0
   -5.1064   -0.3964    4.5868 N   0  0  0  0  0  0  0  0  0  0  0  0
   -5.0415   -1.5720    5.4150 C   0  0  0  0  0  0  0  0  0  0  0  0
   -5.9178   -1.7164    6.5064 C   0  0  0  0  0  0  0  0  0  0  0  0
   -5.8375   -2.8348    7.3383 C   0  0  0  0  0  0  0  0  0  0  0  0
   -4.8754   -3.8157    7.1004 C   0  0  0  0  0  0  0  0  0  0  0  0
   -3.9888   -3.6817    6.0303 C   0  0  0  0  0  0  0  0  0  0  0  0
   -4.0637   -2.5670    5.1770 C   0  0  0  0  0  0  0  0  0  0  0  0
   -3.0939   -2.4454    4.0330 C   0  0  0  0  0  0  0  0  0  0  0  0
   -8.5622    2.7363    4.0580 C   0  0  0  0  0  0  0  0  0  0  0  0
   -8.9162    3.7250    4.9482 C   0  0  0  0  0  0  0  0  0  0  0  0
  -10.1755    4.3128    4.9311 C   0  0  0  0  0  0  0  0  0  0  0  0
  -11.0871    3.8588    4.0313 N   0  0  0  0  0  0  0  0  0  0  0  0
  -10.8093    2.8464    3.1564 C   0  0  0  0  0  0  0  0  0  0  0  0
  -11.8083    2.4222    2.2737 C   0  0  0  0  0  0  0  0  0  0  0  0
  -11.5651    1.3748    1.3873 C   0  0  0  0  0  0  0  0  0  0  0  0
  -10.3268    0.7336    1.3852 C   0  0  0  0  0  0  0  0  0  0  0  0
  -10.1094   -0.3050    0.5409 F   0  0  0  0  0  0  0  0  0  0  0  0
   -9.3137    1.1453    2.2571 C   0  0  0  0  0  0  0  0  0  0  0  0
   -9.5216    2.2249    3.1415 C   0  0  0  0  0  0  0  0  0  0  0  0
  1  3  4  0
  1 14  4  0
  1  2  1  0
  3  4  4  0
  4  5  4  0
  5  6  4  0
  5 22  1  0
  6  7  1  0
  6 14  4  0
  7  8  1  0
  8  9  4  0
  8 12  4  0
  9 10  4  0
 10 11  4  0
 11 12  4  0
 12 13  1  0
 13 14  1  0
 13 15  1  6
 15 16  4  0
 15 20  4  0
 16 17  4  0
 17 18  4  0
 17 21  1  0
 18 19  4  0
 19 20  4  0
 23 24  4  0
 24 25  1  0
 25 26  1  0
 26 27  2  0
 26 28  1  0
 28 29  1  0
 29 30  4  0
 30 31  4  0
 31 32  4  0
 32 33  4  0
 33 34  4  0
 34 35  1  0
 24 36  4  0
 36 37  4  0
 37 38  4  0
 38 39  4  0
 39 40  4  0
 40 41  4  0
 41 42  4  0
 42 43  4  0
 43 44  1  0
 43 45  4  0
 45 46  4  0
 46 40  4  0
 34 29  4  0
 46 36  4  0
  2 23  4  0
  2 37  4  0
M  END
$$$$

     RDKit          3D

 44 50  0  0  0  0  0  0  0  0999 V2000
   -7.6410    4.9930    6.8080 C   0  0  0  0  0  0  0  0  0  1  0  0
   -7.7310    4.0530    5.7140 C   0  0  0  0  0  0  0  0  0  2  0  0
   -6.4520    5.6300    6.8680 N   0  0  0  0  0  0  0  0  0  0  0  0
   -6.2260    6.5240    7.8670 N   0  0  0  0  0  0  0  0  0  0  0  0
   -7.1930    6.7500    8.7820 C   0  0  0  0  0  0  0  0  0  0  0  0
   -8.4240    6.1170    8.7580 C   0  0  0  0  0  0  0  0  0  0  0  0
   -9.3950    6.3570    9.7450 N   0  0  0  0  0  0  0  0  0  0  0  0
  -10.5620    5.6840    9.7600 C   0  0  0  0  0  0  0  0  0  0  0  0
  -11.5770    5.6820   10.5960 N   0  0  0  0  0  0  0  0  0  0  0  0
  -12.4690    4.7490   10.1080 N   0  0  0  0  0  0  0  0  0  0  0  0
  -12.0160    4.1880    8.9920 N   0  0  0  0  0  0  0  0  0  0  0  0
  -10.8400    4.7900    8.7610 N   0  0  0  0  0  0  0  0  0  0  0  0
   -9.9950    4.4790    7.6090 C   0  0  0  0  0  0  0  0  0  0  0  0
   -8.6630    5.2070    7.7200 C   0  0  0  0  0  0  0  0  0  0  0  0
  -10.7490    4.8610    6.3730 C   0  0  0  0  0  0  0  0  0  0  0  0
  -11.0350    6.2020    6.1170 C   0  0  0  0  0  0  0  0  0  0  0  0
  -11.7370    6.5580    4.9650 C   0  0  0  0  0  0  0  0  0  0  0  0
  -12.1550    5.5730    4.0710 C   0  0  0  0  0  0  0  0  0  0  0  0
  -11.8700    4.2310    4.3270 C   0  0  0  0  0  0  0  0  0  0  0  0
  -11.1660    3.8760    5.4790 C   0  0  0  0  0  0  0  0  0  0  0  0
  -12.0160    7.8660    4.7150 O   0  0  0  0  0  0  0  0  0  0  0  0
   -6.8990    7.6510    9.7710 O   0  0  0  0  0  0  0  0  0  0  0  0
   -6.9889    2.8605    5.5961 C   0  0  0  0  0  0  0  0  0  0  0  0
   -7.4510    1.9683    4.2368 S   0  0  0  0  0  0  0  0  0  0  0  0
   -8.6517    3.0397    3.7699 C   0  0  0  0  0  0  0  0  0  0  0  0
   -9.4366    2.9447    2.6759 N   0  0  0  0  0  0  0  0  0  0  0  0
  -10.3440    3.9269    2.4237 C   0  0  0  0  0  0  0  0  0  0  0  0
  -10.4678    5.0124    3.2639 N   0  0  0  0  0  0  0  0  0  0  0  0
  -11.4482    6.0739    2.9382 C   0  0  0  0  0  0  0  0  0  0  0  0
  -10.9424    6.9118    1.7555 C   0  0  0  0  0  0  0  0  0  0  0  0
  -12.8241    5.4877    2.7013 C   0  0  0  0  0  0  0  0  0  0  0  0
  -13.4085    5.6583    1.5963 O   0  0  0  0  0  0  0  0  0  0  0  0
  -13.4530    4.7244    3.7432 N   0  0  0  0  0  0  0  0  0  0  0  0
  -14.8207    4.2812    3.7097 C   0  0  0  0  0  0  0  0  0  0  0  0
  -15.8368    5.0716    3.1435 C   0  0  0  0  0  0  0  0  0  0  0  0
  -17.1640    4.6308    3.1542 C   0  0  0  0  0  0  0  0  0  0  0  0
  -17.5023    3.4063    3.7401 C   0  0  0  0  0  0  0  0  0  0  0  0
  -18.8476    3.0085    3.7216 O   0  0  0  0  0  0  0  0  0  0  0  0
  -19.3277    1.7767    4.2497 C   0  0  0  0  0  0  0  0  0  0  0  0
  -16.4898    2.6233    4.3271 C   0  0  0  0  0  0  0  0  0  0  0  0
  -15.1633    3.0639    4.3167 C   0  0  0  0  0  0  0  0  0  0  0  0
   -9.6441    5.1243    4.3654 C   0  0  0  0  0  0  0  0  0  0  0  0
   -9.7002    6.1408    5.1105 O   0  0  0  0  0  0  0  0  0  0  0  0
   -8.7253    4.1025    4.6411 C   0  0  0  0  0  0  0  0  0  0  0  0
  1  3  4  0
  1 14  4  0
  1  2  1  0
  3  4  4  0
  4  5  4  0
  5  6  4  0
  5 22  1  0
  6  7  1  0
  6 14  4  0
  7  8  1  0
  8  9  4  0
  8 12  4  0
  9 10  4  0
 10 11  4  0
 11 12  4  0
 12 13  1  0
 13 14  1  0
 13 15  1  6
 15 16  4  0
 15 20  4  0
 16 17  4  0
 17 18  4  0
 17 21  1  0
 18 19  4  0
 19 20  4  0
 23 24  4  0
 24 25  4  0
 25 26  4  0
 26 27  4  0
 27 28  4  0
 28 29  1  0
 29 30  1  0
 29 31  1  0
 31 32  2  0
 31 33  1  0
 33 34  1  0
 34 35  4  0
 35 36  4  0
 36 37  4  0
 37 38  1  0
 38 39  1  0
 37 40  4  0
 40 41  4  0
 28 42  4  0
 42 43  2  0
 42 44  4  0
 44 25  4  0
 41 34  4  0
  2 23  4  0
  2 44  4  0
M  END
$$$$

     RDKit          3D

 51 59  0  0  0  0  0  0  0  0999 V2000
   -7.6410    4.9930    6.8080 C   0  0  0  0  0  0  0  0  0  1  0  0
   -7.7310    4.0530    5.7140 C   0  0  0  0  0  0  0  0  0  2  0  0
   -6.4520    5.6300    6.8680 N   0  0  0  0  0  0  0  0  0  0  0  0
   -6.2260    6.5240    7.8670 N   0  0  0  0  0  0  0  0  0  0  0  0
   -7.1930    6.7500    8.7820 C   0  0  0  0  0  0  0  0  0  0  0  0
   -8.4240    6.1170    8.7580 C   0  0  0  0  0  0  0  0  0  0  0  0
   -9.3950    6.3570    9.7450 N   0  0  0  0  0  0  0  0  0  0  0  0
  -10.5620    5.6840    9.7600 C   0  0  0  0  0  0  0  0  0  0  0  0
  -11.5770    5.6820   10.5960 N   0  0  0  0  0  0  0  0  0  0  0  0
  -12.4690    4.7490   10.1080 N   0  0  0  0  0  0  0  0  0  0  0  0
  -12.0160    4.1880    8.9920 N   0  0  0  0  0  0  0  0  0  0  0  0
  -10.8400    4.7900    8.7610 N   0  0  0  0  0  0  0  0  0  0  0  0
   -9.9950    4.4790    7.6090 C   0  0  0  0  0  0  0  0  0  0  0  0
   -8.6630    5.2070    7.7200 C   0  0  0  0  0  0  0  0  0  0  0  0
  -10.7490    4.8610    6.3730 C   0  0  0  0  0  0  0  0  0  0  0  0
  -11.0350    6.2020    6.1170 C   0  0  0  0  0  0  0  0  0  0  0  0
  -11.7370    6.5580    4.9650 C   0  0  0  0  0  0  0  0  0  0  0  0
  -12.1550    5.5730    4.0710 C   0  0  0  0  0  0  0  0  0  0  0  0
  -11.8700    4.2310    4.3270 C   0  0  0  0  0  0  0  0  0  0  0  0
  -11.1660    3.8760    5.4790 C   0  0  0  0  0  0  0  0  0  0  0  0
  -12.0160    7.8660    4.7150 O   0  0  0  0  0  0  0  0  0  0  0  0
   -6.8990    7.6510    9.7710 O   0  0  0  0  0  0  0  0  0  0  0  0
   -8.7849    4.0393    4.6920 C   0  0  0  0  0  0  0  0  0  0  0  0
   -8.4759    2.9637    3.8916 C   0  0  0  0  0  0  0  0  0  0  0  0
   -8.9553    2.4415    2.7565 N   0  0  0  0  0  0  0  0  0  0  0  0
   -8.0404    1.4470    2.5149 C   0  0  0  0  0  0  0  0  0  0  0  0
   -8.0380    0.6027    1.2808 C   0  0  0  0  0  0  0  0  0  0  0  0
   -7.7640    1.4369    0.1582 O   0  0  0  0  0  0  0  0  0  0  0  0
   -8.1148    1.1366   -1.1659 C   0  0  0  0  0  0  0  0  0  0  0  0
   -7.9858    2.1454   -2.1303 C   0  0  0  0  0  0  0  0  0  0  0  0
   -8.3778    1.9169   -3.4533 C   0  0  0  0  0  0  0  0  0  0  0  0
   -8.8956    0.6717   -3.8268 C   0  0  0  0  0  0  0  0  0  0  0  0
   -9.0060   -0.3493   -2.8782 C   0  0  0  0  0  0  0  0  0  0  0  0
   -8.6087   -0.1268   -1.5544 C   0  0  0  0  0  0  0  0  0  0  0  0
   -7.0656    1.3762    3.4717 N   0  0  0  0  0  0  0  0  0  0  0  0
   -7.4068    2.3485    4.2950 N   0  0  0  0  0  0  0  0  0  0  0  0
   -6.9152    2.9321    5.3966 C   0  0  0  0  0  0  0  0  0  0  0  0
   -5.7269    2.4802    6.1502 C   0  0  0  0  0  0  0  0  0  0  0  0
   -5.7920    2.4319    7.7931 S   0  0  0  0  0  0  0  0  0  0  0  0
   -4.5803    1.9683    5.4490 N   0  0  0  0  0  0  0  0  0  0  0  0
   -3.3288    1.6924    6.0982 C   0  0  0  0  0  0  0  0  0  0  0  0
   -2.8853    0.3630    6.1761 C   0  0  0  0  0  0  0  0  0  0  0  0
   -1.6885    0.0545    6.8277 C   0  0  0  0  0  0  0  0  0  0  0  0
   -0.9204    1.0726    7.3998 C   0  0  0  0  0  0  0  0  0  0  0  0
   -1.3408    2.4034    7.3103 C   0  0  0  0  0  0  0  0  0  0  0  0
   -2.5328    2.7313    6.6418 C   0  0  0  0  0  0  0  0  0  0  0  0
   -2.9399    4.1764    6.5383 C   0  0  0  0  0  0  0  0  0  0  0  0
   -9.9728    2.9752    1.8474 C   0  0  0  0  0  0  0  0  0  0  0  0
  -11.0402    3.8014    2.5763 C   0  0  0  0  0  0  0  0  0  0  0  0
  -10.4846    5.1148    3.1562 C   0  0  0  0  0  0  0  0  0  0  0  0
   -9.9629    4.9632    4.5921 C   0  0  0  0  0  0  0  0  0  0  0  0
  1  3  4  0
  1 14  4  0
  1  2  1  0
  3  4  4  0
  4  5  4  0
  5  6  4  0
  5 22  1  0
  6  7  1  0
  6 14  4  0
  7  8  1  0
  8  9  4  0
  8 12  4  0
  9 10  4  0
 10 11  4  0
 11 12  4  0
 12 13  1  0
 13 14  1  0
 13 15  1  6
 15 16  4  0
 15 20  4  0
 16 17  4  0
 17 18  4  0
 17 21  1  0
 18 19  4  0
 19 20  4  0
 23 24  4  0
 24 25  4  0
 25 26  4  0
 26 27  1  0
 27 28  1  0
 28 29  1  0
 29 30  4  0
 30 31  4  0
 31 32  4  0
 32 33  4  0
 33 34  4  0
 26 35  4  0
 35 36  4  0
 36 37  4  0
 37 38  1  0
 38 39  2  0
 38 40  1  0
 40 41  1  0
 41 42  4  0
 42 43  4  0
 43 44  4  0
 44 45  4  0
 45 46  4  0
 46 47  1  0
 25 48  1  0
 48 49  1  0
 49 50  1  0
 50 51  1  0
 46 41  4  0
 51 23  1  0
 36 24  4  0
 34 29  4  0
  2 23  4  0
  2 37  4  0
M  END
$$$$

     RDKit          3D

 43 48  0  0  0  0  0  0  0  0999 V2000
   -7.6410    4.9930    6.8080 C   0  0  0  0  0  0  0  0  0  1  0  0
   -7.7310    4.0530    5.7140 C   0  0  0  0  0  0  0  0  0  2  0  0
   -6.4520    5.6300    6.8680 N   0  0  0  0  0  0  0  0  0  0  0  0
   -6.2260    6.5240    7.8670 N   0  0  0  0  0  0  0  0  0  0  0  0
   -7.1930    6.7500    8.7820 C   0  0  0  0  0  0  0  0  0  0  0  0
   -8.4240    6.1170    8.7580 C   0  0  0  0  0  0  0  0  0  0  0  0
   -9.3950    6.3570    9.7450 N   0  0  0  0  0  0  0  0  0  0  0  0
  -10.5620    5.6840    9.7600 C   0  0  0  0  0  0  0  0  0  0  0  0
  -11.5770    5.6820   10.5960 N   0  0  0  0  0  0  0  0  0  0  0  0
  -12.4690    4.7490   10.1080 N   0  0  0  0  0  0  0  0  0  0  0  0
  -12.0160    4.1880    8.9920 N   0  0  0  0  0  0  0  0  0  0  0  0
  -10.8400    4.7900    8.7610 N   0  0  0  0  0  0  0  0  0  0  0  0
   -9.9950    4.4790    7.6090 C   0  0  0  0  0  0  0  0  0  0  0  0
   -8.6630    5.2070    7.7200 C   0  0  0  0  0  0  0  0  0  0  0  0
  -10.7490    4.8610    6.3730 C   0  0  0  0  0  0  0  0  0  0  0  0
  -11.0350    6.2020    6.1170 C   0  0  0  0  0  0  0  0  0  0  0  0
  -11.7370    6.5580    4.9650 C   0  0  0  0  0  0  0  0  0  0  0  0
  -12.1550    5.5730    4.0710 C   0  0  0  0  0  0  0  0  0  0  0  0
  -11.8700    4.2310    4.3270 C   0  0  0  0  0  0  0  0  0  0  0  0
  -11.1660    3.8760    5.4790 C   0  0  0  0  0  0  0  0  0  0  0  0
  -12.0160    7.8660    4.7150 O   0  0  0  0  0  0  0  0  0  0  0  0
   -6.8990    7.6510    9.7710 O   0  0  0  0  0  0  0  0  0  0  0  0
   -6.7646    3.2621    5.1384 C   0  0  0  0  0  0  0  0  0  0  0  0
   -7.3473    2.4392    4.1960 C   0  0  0  0  0  0  0  0  0  0  0  0
   -6.6086    1.4202    3.3833 C   0  0  0  0  0  0  0  0  0  0  0  0
   -8.6816    2.6578    4.1371 N   0  0  0  0  0  0  0  0  0  0  0  0
   -9.6292    1.9570    3.2603 C   0  0  0  0  0  0  0  0  0  0  0  0
   -9.4789    2.4210    1.8410 C   0  0  0  0  0  0  0  0  0  0  0  0
   -9.2711    1.5718    0.9338 O   0  0  0  0  0  0  0  0  0  0  0  0
   -9.5931    3.8142    1.5158 N   0  0  0  0  0  0  0  0  0  0  0  0
   -9.3402    4.3114    0.2252 N   0  0  0  0  0  0  0  0  0  0  0  0
   -8.1952    3.9174   -0.5444 C   0  0  0  0  0  0  0  0  0  0  0  0
   -7.2551    3.2743   -0.0049 O   0  0  0  0  0  0  0  0  0  0  0  0
   -8.1185    4.2499   -2.0036 C   0  0  0  0  0  0  0  0  0  0  0  0
   -8.7699    3.1636   -2.8161 C   0  0  0  0  0  0  0  0  0  0  0  0
   -7.9909    2.2723   -3.5738 C   0  0  0  0  0  0  0  0  0  0  0  0
   -8.6035    1.2578   -4.3161 C   0  0  0  0  0  0  0  0  0  0  0  0
   -9.9952    1.1257   -4.3087 C   0  0  0  0  0  0  0  0  0  0  0  0
  -10.5873    0.1403   -5.0271 F   0  0  0  0  0  0  0  0  0  0  0  0
  -10.7766    2.0085   -3.5580 C   0  0  0  0  0  0  0  0  0  0  0  0
  -10.1685    3.0240   -2.8150 C   0  0  0  0  0  0  0  0  0  0  0  0
   -8.9570    3.6354    5.0371 C   0  0  0  0  0  0  0  0  0  0  0  0
  -10.3261    4.2036    5.2926 C   0  0  0  0  0  0  0  0  0  0  0  0
  1  3  4  0
  1 14  4  0
  1  2  1  0
  3  4  4  0
  4  5  4  0
  5  6  4  0
  5 22  1  0
  6  7  1  0
  6 14  4  0
  7  8  1  0
  8  9  4  0
  8 12  4  0
  9 10  4  0
 10 11  4  0
 11 12  4  0
 12 13  1  0
 13 14  1  0
 13 15  1  6
 15 16  4  0
 15 20  4  0
 16 17  4  0
 17 18  4  0
 17 21  1  0
 18 19  4  0
 19 20  4  0
 23 24  4  0
 24 25  1  0
 24 26  4  0
 26 27  1  0
 27 28  1  0
 28 29  2  0
 28 30  1  0
 30 31  1  0
 31 32  1  0
 32 33  2  0
 32 34  1  0
 34 35  1  0
 35 36  4  0
 36 37  4  0
 37 38  4  0
 38 39  1  0
 38 40  4  0
 40 41  4  0
 26 42  4  0
 42 43  1  0
 41 35  4  0
  2 23  4  0
  2 42  4  0
M  END
$$$$

     RDKit          3D

 43 48  0  0  0  0  0  0  0  0999 V2000
   -7.6410    4.9930    6.8080 C   0  0  0  0  0  0  0  0  0  1  0  0
   -7.7310    4.0530    5.7140 C   0  0  0  0  0  0  0  0  0  2  0  0
   -6.4520    5.6300    6.8680 N   0  0  0  0  0  0  0  0  0  0  0  0
   -6.2260    6.5240    7.8670 N   0  0  0  0  0  0  0  0  0  0  0  0
   -7.1930    6.7500    8.7820 C   0  0  0  0  0  0  0  0  0  0  0  0
   -8.4240    6.1170    8.7580 C   0  0  0  0  0  0  0  0  0  0  0  0
   -9.3950    6.3570    9.7450 N   0  0  0  0  0  0  0  0  0  0  0  0
  -10.5620    5.6840    9.7600 C   0  0  0  0  0  0  0  0  0  0  0  0
  -11.5770    5.6820   10.5960 N   0  0  0  0  0  0  0  0  0  0  0  0
  -12.4690    4.7490   10.1080 N   0  0  0  0  0  0  0  0  0  0  0  0
  -12.0160    4.1880    8.9920 N   0  0  0  0  0  0  0  0  0  0  0  0
  -10.8400    4.7900    8.7610 N   0  0  0  0  0  0  0  0  0  0  0  0
   -9.9950    4.4790    7.6090 C   0  0  0  0  0  0  0  0  0  0  0  0
   -8.6630    5.2070    7.7200 C   0  0  0  0  0  0  0  0  0  0  0  0
  -10.7490    4.8610    6.3730 C   0  0  0  0  0  0  0  0  0  0  0  0
  -11.0350    6.2020    6.1170 C   0  0  0  0  0  0  0  0  0  0  0  0
  -11.7370    6.5580    4.9650 C   0  0  0  0  0  0  0  0  0  0  0  0
  -12.1550    5.5730    4.0710 C   0  0  0  0  0  0  0  0  0  0  0  0
  -11.8700    4.2310    4.3270 C   0  0  0  0  0  0  0  0  0  0  0  0
  -11.1660    3.8760    5.4790 C   0  0  0  0  0  0  0  0  0  0  0  0
  -12.0160    7.8660    4.7150 O   0  0  0  0  0  0  0  0  0  0  0  0
   -6.8990    7.6510    9.7710 O   0  0  0  0  0  0  0  0  0  0  0  0
   -6.7550    3.3054    5.0972 C   0  0  0  0  0  0  0  0  0  0  0  0
   -7.3361    2.4759    4.1592 C   0  0  0  0  0  0  0  0  0  0  0  0
   -6.5821    1.5346    3.2702 C   0  0  0  0  0  0  0  0  0  0  0  0
   -8.6788    2.6450    4.1469 N   0  0  0  0  0  0  0  0  0  0  0  0
   -9.6256    1.9525    3.2646 C   0  0  0  0  0  0  0  0  0  0  0  0
   -9.6740    2.6294    1.9214 C   0  0  0  0  0  0  0  0  0  0  0  0
  -10.0494    3.8302    1.8575 O   0  0  0  0  0  0  0  0  0  0  0  0
   -9.2754    1.9590    0.7165 N   0  0  0  0  0  0  0  0  0  0  0  0
   -8.9789    0.5867    0.6781 N   0  0  0  0  0  0  0  0  0  0  0  0
   -9.9903   -0.4198    0.8305 C   0  0  0  0  0  0  0  0  0  0  0  0
   -9.6474   -1.6316    0.8792 O   0  0  0  0  0  0  0  0  0  0  0  0
  -11.4528   -0.0717    0.8690 C   0  0  0  0  0  0  0  0  0  0  0  0
  -11.9134    0.4333   -0.4726 C   0  0  0  0  0  0  0  0  0  0  0  0
  -12.3174    1.7697   -0.6343 C   0  0  0  0  0  0  0  0  0  0  0  0
  -12.7369    2.2325   -1.8858 C   0  0  0  0  0  0  0  0  0  0  0  0
  -12.7634    1.3648   -2.9818 C   0  0  0  0  0  0  0  0  0  0  0  0
  -13.1727    1.8144   -4.1940 F   0  0  0  0  0  0  0  0  0  0  0  0
  -12.3722    0.0313   -2.8270 C   0  0  0  0  0  0  0  0  0  0  0  0
  -11.9490   -0.4343   -1.5783 C   0  0  0  0  0  0  0  0  0  0  0  0
   -8.9612    3.6052    5.0622 C   0  0  0  0  0  0  0  0  0  0  0  0
  -10.3379    4.1490    5.3273 C   0  0  0  0  0  0  0  0  0  0  0  0
  1  3  4  0
  1 14  4  0
  1  2  1  0
  3  4  4  0
  4  5  4  0
  5  6  4  0
  5 22  1  0
  6  7  1  0
  6 14  4  0
  7  8  1  0
  8  9  4  0
  8 12  4  0
  9 10  4  0
 10 11  4  0
 11 12  4  0
 12 13  1  0
 13 14  1  0
 13 15  1  6
 15 16  4  0
 15 20  4  0
 16 17  4  0
 17 18  4  0
 17 21  1  0
 18 19  4  0
 19 20  4  0
 23 24  4  0
 24 25  1  0
 24 26  4  0
 26 27  1  0
 27 28  1  0
 28 29  2  0
 28 30  1  0
 30 31  1  0
 31 32  1  0
 32 33  2  0
 32 34  1  0
 34 35  1  0
 35 36  4  0
 36 37  4  0
 37 38  4  0
 38 39  1  0
 38 40  4  0
 40 41  4  0
 26 42  4  0
 42 43  1  0
 41 35  4  0
  2 23  4  0
  2 42  4  0
M  END
$$$$

     RDKit          3D

 38 43  0  0  0  0  0  0  0  0999 V2000
   -7.6410    4.9930    6.8080 C   0  0  0  0  0  0  0  0  0  1  0  0
   -7.7310    4.0530    5.7140 C   0  0  0  0  0  0  0  0  0  2  0  0
   -6.4520    5.6300    6.8680 N   0  0  0  0  0  0  0  0  0  0  0  0
   -6.2260    6.5240    7.8670 N   0  0  0  0  0  0  0  0  0  0  0  0
   -7.1930    6.7500    8.7820 C   0  0  0  0  0  0  0  0  0  0  0  0
   -8.4240    6.1170    8.7580 C   0  0  0  0  0  0  0  0  0  0  0  0
   -9.3950    6.3570    9.7450 N   0  0  0  0  0  0  0  0  0  0  0  0
  -10.5620    5.6840    9.7600 C   0  0  0  0  0  0  0  0  0  0  0  0
  -11.5770    5.6820   10.5960 N   0  0  0  0  0  0  0  0  0  0  0  0
  -12.4690    4.7490   10.1080 N   0  0  0  0  0  0  0  0  0  0  0  0
  -12.0160    4.1880    8.9920 N   0  0  0  0  0  0  0  0  0  0  0  0
  -10.8400    4.7900    8.7610 N   0  0  0  0  0  0  0  0  0  0  0  0
   -9.9950    4.4790    7.6090 C   0  0  0  0  0  0  0  0  0  0  0  0
   -8.6630    5.2070    7.7200 C   0  0  0  0  0  0  0  0  0  0  0  0
  -10.7490    4.8610    6.3730 C   0  0  0  0  0  0  0  0  0  0  0  0
  -11.0350    6.2020    6.1170 C   0  0  0  0  0  0  0  0  0  0  0  0
  -11.7370    6.5580    4.9650 C   0  0  0  0  0  0  0  0  0  0  0  0
  -12.1550    5.5730    4.0710 C   0  0  0  0  0  0  0  0  0  0  0  0
  -11.8700    4.2310    4.3270 C   0  0  0  0  0  0  0  0  0  0  0  0
  -11.1660    3.8760    5.4790 C   0  0  0  0  0  0  0  0  0  0  0  0
  -12.0160    7.8660    4.7150 O   0  0  0  0  0  0  0  0  0  0  0  0
   -6.8990    7.6510    9.7710 O   0  0  0  0  0  0  0  0  0  0  0  0
   -6.9649    2.9777    5.4359 N   0  0  0  0  0  0  0  0  0  0  0  0
   -7.4682    2.2958    4.4168 N   0  0  0  0  0  0  0  0  0  0  0  0
   -8.6100    2.9129    4.0609 C   0  0  0  0  0  0  0  0  0  0  0  0
   -9.6527    2.3625    2.7101 S   0  0  0  0  0  0  0  0  0  0  0  0
  -10.6667    1.2902    3.7818 C   0  0  0  0  0  0  0  0  0  0  0  0
  -11.6912    0.5589    2.9606 C   0  0  0  0  0  0  0  0  0  0  0  0
  -12.9072    0.8211    3.1673 O   0  0  0  0  0  0  0  0  0  0  0  0
  -11.3174   -0.4557    1.9310 C   0  0  0  0  0  0  0  0  0  0  0  0
  -10.0010   -0.9590    1.8529 C   0  0  0  0  0  0  0  0  0  0  0  0
   -9.6568   -1.9111    0.8896 C   0  0  0  0  0  0  0  0  0  0  0  0
  -10.6152   -2.3777   -0.0093 C   0  0  0  0  0  0  0  0  0  0  0  0
  -11.9218   -1.8931    0.0522 C   0  0  0  0  0  0  0  0  0  0  0  0
  -12.2774   -0.9399    1.0124 C   0  0  0  0  0  0  0  0  0  0  0  0
  -13.5565   -0.4861    1.0272 F   0  0  0  0  0  0  0  0  0  0  0  0
   -8.8531    3.9904    4.8301 N   0  0  0  0  0  0  0  0  0  0  0  0
   -9.9422    4.9536    4.6885 C   0  0  0  0  0  0  0  0  0  0  0  0
  1  3  4  0
  1 14  4  0
  1  2  1  0
  3  4  4  0
  4  5  4  0
  5  6  4  0
  5 22  1  0
  6  7  1  0
  6 14  4  0
  7  8  1  0
  8  9  4  0
  8 12  4  0
  9 10  4  0
 10 11  4  0
 11 12  4  0
 12 13  1  0
 13 14  1  0
 13 15  1  6
 15 16  4  0
 15 20  4  0
 16 17  4  0
 17 18  4  0
 17 21  1  0
 18 19  4  0
 19 20  4  0
 23 24  4  0
 24 25  4  0
 25 26  1  0
 26 27  1  0
 27 28  1  0
 28 29  2  0
 28 30  1  0
 30 31  4  0
 31 32  4  0
 32 33  4  0
 33 34  4  0
 34 35  4  0
 35 36  1  0
 25 37  4  0
 37 38  1  0
 35 30  4  0
  2 23  4  0
  2 37  4  0
M  END
$$$$

     RDKit          3D

 37 43  0  0  0  0  0  0  0  0999 V2000
   -7.6410    4.9930    6.8080 C   0  0  0  0  0  0  0  0  0  1  0  0
   -7.7310    4.0530    5.7140 C   0  0  0  0  0  0  0  0  0  2  0  0
   -6.4520    5.6300    6.8680 N   0  0  0  0  0  0  0  0  0  0  0  0
   -6.2260    6.5240    7.8670 N   0  0  0  0  0  0  0  0  0  0  0  0
   -7.1930    6.7500    8.7820 C   0  0  0  0  0  0  0  0  0  0  0  0
   -8.4240    6.1170    8.7580 C   0  0  0  0  0  0  0  0  0  0  0  0
   -9.3950    6.3570    9.7450 N   0  0  0  0  0  0  0  0  0  0  0  0
  -10.5620    5.6840    9.7600 C   0  0  0  0  0  0  0  0  0  0  0  0
  -11.5770    5.6820   10.5960 N   0  0  0  0  0  0  0  0  0  0  0  0
  -12.4690    4.7490   10.1080 N   0  0  0  0  0  0  0  0  0  0  0  0
  -12.0160    4.1880    8.9920 N   0  0  0  0  0  0  0  0  0  0  0  0
  -10.8400    4.7900    8.7610 N   0  0  0  0  0  0  0  0  0  0  0  0
   -9.9950    4.4790    7.6090 C   0  0  0  0  0  0  0  0  0  0  0  0
   -8.6630    5.2070    7.7200 C   0  0  0  0  0  0  0  0  0  0  0  0
  -10.7490    4.8610    6.3730 C   0  0  0  0  0  0  0  0  0  0  0  0
  -11.0350    6.2020    6.1170 C   0  0  0  0  0  0  0  0  0  0  0  0
  -11.7370    6.5580    4.9650 C   0  0  0  0  0  0  0  0  0  0  0  0
  -12.1550    5.5730    4.0710 C   0  0  0  0  0  0  0  0  0  0  0  0
  -11.8700    4.2310    4.3270 C   0  0  0  0  0  0  0  0  0  0  0  0
  -11.1660    3.8760    5.4790 C   0  0  0  0  0  0  0  0  0  0  0  0
  -12.0160    7.8660    4.7150 O   0  0  0  0  0  0  0  0  0  0  0  0
   -6.8990    7.6510    9.7710 O   0  0  0  0  0  0  0  0  0  0  0  0
   -6.7876    3.1138    5.2519 C   0  0  0  0  0  0  0  0  0  0  0  0
   -7.3473    2.4173    4.2562 N   0  0  0  0  0  0  0  0  0  0  0  0
   -7.1202    1.4616    3.3566 C   0  0  0  0  0  0  0  0  0  0  0  0
   -8.3218    1.3575    2.6313 C   0  0  0  0  0  0  0  0  0  1  0  0
   -8.5874    0.4306    1.5036 C   0  0  0  0  0  0  0  0  0  2  0  0
   -7.6081   -0.4771    1.0551 C   0  0  0  0  0  0  0  0  0  0  0  0
   -7.8781   -1.3428   -0.0095 C   0  0  0  0  0  0  0  0  0  0  0  0
   -9.1253   -1.3148   -0.6390 C   0  0  0  0  0  0  0  0  0  0  0  0
   -9.4605   -2.4021   -1.9740 Cl  0  0  0  0  0  0  0  0  0  0  0  0
  -10.1049   -0.4190   -0.2029 C   0  0  0  0  0  0  0  0  0  0  0  0
   -9.8396    0.4483    0.8610 C   0  0  0  0  0  0  0  0  0  0  0  0
   -9.2508    2.2493    3.0996 N   0  0  0  0  0  0  0  0  0  0  0  0
   -8.5660    2.8452    4.0906 C   0  0  0  0  0  0  0  0  0  0  0  0
   -8.9138    3.8361    4.9267 N   0  0  0  0  0  0  0  0  0  0  0  0
  -10.1866    4.5500    4.9694 C   0  0  0  0  0  0  0  0  0  0  0  0
  1  3  4  0
  1 14  4  0
  1  2  1  0
  3  4  4  0
  4  5  4  0
  5  6  4  0
  5 22  1  0
  6  7  1  0
  6 14  4  0
  7  8  1  0
  8  9  4  0
  8 12  4  0
  9 10  4  0
 10 11  4  0
 11 12  4  0
 12 13  1  0
 13 14  1  0
 13 15  1  6
 15 16  4  0
 15 20  4  0
 16 17  4  0
 17 18  4  0
 17 21  1  0
 18 19  4  0
 19 20  4  0
 23 24  4  0
 24 25  4  0
 25 26  4  0
 26 27  1  0
 27 28  4  0
 28 29  4  0
 29 30  4  0
 30 31  1  0
 30 32  4  0
 32 33  4  0
 26 34  4  0
 34 35  4  0
 35 36  4  0
 36 37  1  0
 35 24  4  0
 33 27  4  0
  2 23  4  0
  2 36  4  0
M  END
$$$$

     RDKit          3D

 37 43  0  0  0  0  0  0  0  0999 V2000
   -7.6410    4.9930    6.8080 C   0  0  0  0  0  0  0  0  0  1  0  0
   -7.7310    4.0530    5.7140 C   0  0  0  0  0  0  0  0  0  2  0  0
   -6.4520    5.6300    6.8680 N   0  0  0  0  0  0  0  0  0  0  0  0
   -6.2260    6.5240    7.8670 N   0  0  0  0  0  0  0  0  0  0  0  0
   -7.1930    6.7500    8.7820 C   0  0  0  0  0  0  0  0  0  0  0  0
   -8.4240    6.1170    8.7580 C   0  0  0  0  0  0  0  0  0  0  0  0
   -9.3950    6.3570    9.7450 N   0  0  0  0  0  0  0  0  0  0  0  0
  -10.5620    5.6840    9.7600 C   0  0  0  0  0  0  0  0  0  0  0  0
  -11.5770    5.6820   10.5960 N   0  0  0  0  0  0  0  0  0  0  0  0
  -12.4690    4.7490   10.1080 N   0  0  0  0  0  0  0  0  0  0  0  0
  -12.0160    4.1880    8.9920 N   0  0  0  0  0  0  0  0  0  0  0  0
  -10.8400    4.7900    8.7610 N   0  0  0  0  0  0  0  0  0  0  0  0
   -9.9950    4.4790    7.6090 C   0  0  0  0  0  0  0  0  0  0  0  0
   -8.6630    5.2070    7.7200 C   0  0  0  0  0  0  0  0  0  0  0  0
  -10.7490    4.8610    6.3730 C   0  0  0  0  0  0  0  0  0  0  0  0
  -11.0350    6.2020    6.1170 C   0  0  0  0  0  0  0  0  0  0  0  0
  -11.7370    6.5580    4.9650 C   0  0  0  0  0  0  0  0  0  0  0  0
  -12.1550    5.5730    4.0710 C   0  0  0  0  0  0  0  0  0  0  0  0
  -11.8700    4.2310    4.3270 C   0  0  0  0  0  0  0  0  0  0  0  0
  -11.1660    3.8760    5.4790 C   0  0  0  0  0  0  0  0  0  0  0  0
  -12.0160    7.8660    4.7150 O   0  0  0  0  0  0  0  0  0  0  0  0
   -6.8990    7.6510    9.7710 O   0  0  0  0  0  0  0  0  0  0  0  0
   -6.7875    3.1140    5.2517 C   0  0  0  0  0  0  0  0  0  0  0  0
   -7.3472    2.4175    4.2559 N   0  0  0  0  0  0  0  0  0  0  0  0
   -7.1202    1.4620    3.3561 C   0  0  0  0  0  0  0  0  0  0  0  0
   -8.3219    1.3579    2.6310 C   0  0  0  0  0  0  0  0  0  1  0  0
   -8.5874    0.4312    1.5031 C   0  0  0  0  0  0  0  0  0  2  0  0
   -9.8401    0.4483    0.8613 C   0  0  0  0  0  0  0  0  0  0  0  0
  -10.1053   -0.4189   -0.2028 C   0  0  0  0  0  0  0  0  0  0  0  0
   -9.1253   -1.3138   -0.6398 C   0  0  0  0  0  0  0  0  0  0  0  0
   -9.4604   -2.4010   -1.9750 Cl  0  0  0  0  0  0  0  0  0  0  0  0
   -7.8778   -1.3411   -0.0110 C   0  0  0  0  0  0  0  0  0  0  0  0
   -7.6077   -0.4756    1.0537 C   0  0  0  0  0  0  0  0  0  0  0  0
   -9.2509    2.2496    3.0996 N   0  0  0  0  0  0  0  0  0  0  0  0
   -8.5660    2.8453    4.0905 C   0  0  0  0  0  0  0  0  0  0  0  0
   -8.9138    3.8361    4.9269 N   0  0  0  0  0  0  0  0  0  0  0  0
  -10.1867    4.5499    4.9698 C   0  0  0  0  0  0  0  0  0  0  0  0
  1  3  4  0
  1 14  4  0
  1  2  1  0
  3  4  4  0
  4  5  4  0
  5  6  4  0
  5 22  1  0
  6  7  1  0
  6 14  4  0
  7  8  1  0
  8  9  4  0
  8 12  4  0
  9 10  4  0
 10 11  4  0
 11 12  4  0
 12 13  1  0
 13 14  1  0
 13 15  1  6
 15 16  4  0
 15 20  4  0
 16 17  4  0
 17 18  4  0
 17 21  1  0
 18 19  4  0
 19 20  4  0
 23 24  4  0
 24 25  4  0
 25 26  4  0
 26 27  1  0
 27 28  4  0
 28 29  4  0
 29 30  4  0
 30 31  1  0
 30 32  4  0
 32 33  4  0
 26 34  4  0
 34 35  4  0
 35 36  4  0
 36 37  1  0
 35 24  4  0
 33 27  4  0
  2 23  4  0
  2 36  4  0
M  END
$$$$

     RDKit          3D

 32 37  0  0  0  0  0  0  0  0999 V2000
   -7.6410    4.9930    6.8080 C   0  0  0  0  0  0  0  0  0  1  0  0
   -7.7310    4.0530    5.7140 C   0  0  0  0  0  0  0  0  0  2  0  0
   -6.4520    5.6300    6.8680 N   0  0  0  0  0  0  0  0  0  0  0  0
   -6.2260    6.5240    7.8670 N   0  0  0  0  0  0  0  0  0  0  0  0
   -7.1930    6.7500    8.7820 C   0  0  0  0  0  0  0  0  0  0  0  0
   -8.4240    6.1170    8.7580 C   0  0  0  0  0  0  0  0  0  0  0  0
   -9.3950    6.3570    9.7450 N   0  0  0  0  0  0  0  0  0  0  0  0
  -10.5620    5.6840    9.7600 C   0  0  0  0  0  0  0  0  0  0  0  0
  -11.5770    5.6820   10.5960 N   0  0  0  0  0  0  0  0  0  0  0  0
  -12.4690    4.7490   10.1080 N   0  0  0  0  0  0  0  0  0  0  0  0
  -12.0160    4.1880    8.9920 N   0  0  0  0  0  0  0  0  0  0  0  0
  -10.8400    4.7900    8.7610 N   0  0  0  0  0  0  0  0  0  0  0  0
   -9.9950    4.4790    7.6090 C   0  0  0  0  0  0  0  0  0  0  0  0
   -8.6630    5.2070    7.7200 C   0  0  0  0  0  0  0  0  0  0  0  0
  -10.7490    4.8610    6.3730 C   0  0  0  0  0  0  0  0  0  0  0  0
  -11.0350    6.2020    6.1170 C   0  0  0  0  0  0  0  0  0  0  0  0
  -11.7370    6.5580    4.9650 C   0  0  0  0  0  0  0  0  0  0  0  0
  -12.1550    5.5730    4.0710 C   0  0  0  0  0  0  0  0  0  0  0  0
  -11.8700    4.2310    4.3270 C   0  0  0  0  0  0  0  0  0  0  0  0
  -11.1660    3.8760    5.4790 C   0  0  0  0  0  0  0  0  0  0  0  0
  -12.0160    7.8660    4.7150 O   0  0  0  0  0  0  0  0  0  0  0  0
   -6.8990    7.6510    9.7710 O   0  0  0  0  0  0  0  0  0  0  0  0
   -6.9231    2.9620    5.3339 C   0  0  0  0  0  0  0  0  0  0  0  0
   -5.6464    2.6079    6.0418 C   0  0  0  0  0  0  0  0  0  0  0  0
   -7.4049    2.2954    4.2511 N   0  0  0  0  0  0  0  0  0  0  0  0
   -6.8129    1.1242    3.6027 C   0  0  0  0  0  0  0  0  0  0  0  0
   -8.5869    2.8743    3.9491 C   0  0  0  0  0  0  0  0  0  0  0  0
   -9.4820    2.5248    2.9319 C   0  0  0  0  0  0  0  0  0  0  0  0
  -10.6519    3.2910    2.7875 C   0  0  0  0  0  0  0  0  0  0  0  0
  -10.9040    4.3804    3.6471 C   0  0  0  0  0  0  0  0  0  0  0  0
   -9.9933    4.7091    4.6657 C   0  0  0  0  0  0  0  0  0  0  0  0
   -8.8463    3.9232    4.7987 C   0  0  0  0  0  0  0  0  0  0  0  0
  1  3  4  0
  1 14  4  0
  1  2  1  0
  3  4  4  0
  4  5  4  0
  5  6  4  0
  5 22  1  0
  6  7  1  0
  6 14  4  0
  7  8  1  0
  8  9  4  0
  8 12  4  0
  9 10  4  0
 10 11  4  0
 11 12  4  0
 12 13  1  0
 13 14  1  0
 13 15  1  6
 15 16  4  0
 15 20  4  0
 16 17  4  0
 17 18  4  0
 17 21  1  0
 18 19  4  0
 19 20  4  0
 23 24  1  0
 23 25  4  0
 25 26  1  0
 25 27  4  0
 27 28  4  0
 28 29  4  0
 29 30  4  0
 30 31  4  0
 31 32  4  0
 32 27  4  0
  2 23  4  0
  2 32  4  0
M  END
$$$$

     RDKit          3D

 32 37  0  0  0  0  0  0  0  0999 V2000
   -7.6410    4.9930    6.8080 C   0  0  0  0  0  0  0  0  0  1  0  0
   -7.7310    4.0530    5.7140 C   0  0  0  0  0  0  0  0  0  2  0  0
   -6.4520    5.6300    6.8680 N   0  0  0  0  0  0  0  0  0  0  0  0
   -6.2260    6.5240    7.8670 N   0  0  0  0  0  0  0  0  0  0  0  0
   -7.1930    6.7500    8.7820 C   0  0  0  0  0  0  0  0  0  0  0  0
   -8.4240    6.1170    8.7580 C   0  0  0  0  0  0  0  0  0  0  0  0
   -9.3950    6.3570    9.7450 N   0  0  0  0  0  0  0  0  0  0  0  0
  -10.5620    5.6840    9.7600 C   0  0  0  0  0  0  0  0  0  0  0  0
  -11.5770    5.6820   10.5960 N   0  0  0  0  0  0  0  0  0  0  0  0
  -12.4690    4.7490   10.1080 N   0  0  0  0  0  0  0  0  0  0  0  0
  -12.0160    4.1880    8.9920 N   0  0  0  0  0  0  0  0  0  0  0  0
  -10.8400    4.7900    8.7610 N   0  0  0  0  0  0  0  0  0  0  0  0
   -9.9950    4.4790    7.6090 C   0  0  0  0  0  0  0  0  0  0  0  0
   -8.6630    5.2070    7.7200 C   0  0  0  0  0  0  0  0  0  0  0  0
  -10.7490    4.8610    6.3730 C   0  0  0  0  0  0  0  0  0  0  0  0
  -11.0350    6.2020    6.1170 C   0  0  0  0  0  0  0  0  0  0  0  0
  -11.7370    6.5580    4.9650 C   0  0  0  0  0  0  0  0  0  0  0  0
  -12.1550    5.5730    4.0710 C   0  0  0  0  0  0  0  0  0  0  0  0
  -11.8700    4.2310    4.3270 C   0  0  0  0  0  0  0  0  0  0  0  0
  -11.1660    3.8760    5.4790 C   0  0  0  0  0  0  0  0  0  0  0  0
  -12.0160    7.8660    4.7150 O   0  0  0  0  0  0  0  0  0  0  0  0
   -6.8990    7.6510    9.7710 O   0  0  0  0  0  0  0  0  0  0  0  0
   -8.8459    3.9102    4.7758 C   0  0  0  0  0  0  0  0  0  0  0  0
  -10.0215    4.8429    4.7010 C   0  0  0  0  0  0  0  0  0  0  0  0
   -8.6611    2.8446    3.9503 N   0  0  0  0  0  0  0  0  0  0  0  0
   -9.5496    2.3607    2.8917 C   0  0  0  0  0  0  0  0  0  0  0  0
   -7.4949    2.2776    4.3228 C   0  0  0  0  0  0  0  0  0  0  0  0
   -6.8857    1.1394    3.7850 C   0  0  0  0  0  0  0  0  0  0  0  0
   -5.6755    0.7055    4.3543 C   0  0  0  0  0  0  0  0  0  0  0  0
   -5.1081    1.4003    5.4433 C   0  0  0  0  0  0  0  0  0  0  0  0
   -5.7428    2.5386    5.9704 C   0  0  0  0  0  0  0  0  0  0  0  0
   -6.9346    2.9592    5.3755 C   0  0  0  0  0  0  0  0  0  0  0  0
  1  3  4  0
  1 14  4  0
  1  2  1  0
  3  4  4  0
  4  5  4  0
  5  6  4  0
  5 22  1  0
  6  7  1  0
  6 14  4  0
  7  8  1  0
  8  9  4  0
  8 12  4  0
  9 10  4  0
 10 11  4  0
 11 12  4  0
 12 13  1  0
 13 14  1  0
 13 15  1  6
 15 16  4  0
 15 20  4  0
 16 17  4  0
 17 18  4  0
 17 21  1  0
 18 19  4  0
 19 20  4  0
 23 24  1  0
 23 25  4  0
 25 26  1  0
 25 27  4  0
 27 28  4  0
 28 29  4  0
 29 30  4  0
 30 31  4  0
 31 32  4  0
 32 27  4  0
  2 23  4  0
  2 32  4  0
M  END
$$$$

     RDKit          3D

 37 42  0  0  0  0  0  0  0  0999 V2000
   -7.6410    4.9930    6.8080 C   0  0  0  0  0  0  0  0  0  1  0  0
   -7.7310    4.0530    5.7140 C   0  0  0  0  0  0  0  0  0  2  0  0
   -6.4520    5.6300    6.8680 N   0  0  0  0  0  0  0  0  0  0  0  0
   -6.2260    6.5240    7.8670 N   0  0  0  0  0  0  0  0  0  0  0  0
   -7.1930    6.7500    8.7820 C   0  0  0  0  0  0  0  0  0  0  0  0
   -8.4240    6.1170    8.7580 C   0  0  0  0  0  0  0  0  0  0  0  0
   -9.3950    6.3570    9.7450 N   0  0  0  0  0  0  0  0  0  0  0  0
  -10.5620    5.6840    9.7600 C   0  0  0  0  0  0  0  0  0  0  0  0
  -11.5770    5.6820   10.5960 N   0  0  0  0  0  0  0  0  0  0  0  0
  -12.4690    4.7490   10.1080 N   0  0  0  0  0  0  0  0  0  0  0  0
  -12.0160    4.1880    8.9920 N   0  0  0  0  0  0  0  0  0  0  0  0
  -10.8400    4.7900    8.7610 N   0  0  0  0  0  0  0  0  0  0  0  0
   -9.9950    4.4790    7.6090 C   0  0  0  0  0  0  0  0  0  0  0  0
   -8.6630    5.2070    7.7200 C   0  0  0  0  0  0  0  0  0  0  0  0
  -10.7490    4.8610    6.3730 C   0  0  0  0  0  0  0  0  0  0  0  0
  -11.0350    6.2020    6.1170 C   0  0  0  0  0  0  0  0  0  0  0  0
  -11.7370    6.5580    4.9650 C   0  0  0  0  0  0  0  0  0  0  0  0
  -12.1550    5.5730    4.0710 C   0  0  0  0  0  0  0  0  0  0  0  0
  -11.8700    4.2310    4.3270 C   0  0  0  0  0  0  0  0  0  0  0  0
  -11.1660    3.8760    5.4790 C   0  0  0  0  0  0  0  0  0  0  0  0
  -12.0160    7.8660    4.7150 O   0  0  0  0  0  0  0  0  0  0  0  0
   -6.8990    7.6510    9.7710 O   0  0  0  0  0  0  0  0  0  0  0  0
   -6.8330    3.0917    5.2810 C   0  0  0  0  0  0  0  0  0  0  0  0
   -7.3239    2.3477    4.2701 N   0  0  0  0  0  0  0  0  0  0  0  0
   -8.5668    2.8340    4.0731 C   0  0  0  0  0  0  0  0  0  0  0  0
   -9.6679    2.1888    2.8123 S   0  0  0  0  0  0  0  0  0  0  0  0
   -9.0504    3.3263    1.5236 C   0  0  0  0  0  0  0  0  0  0  0  0
  -10.0000    3.3452    0.3266 C   0  0  0  0  0  0  0  0  0  0  0  0
  -11.3116    3.8702    0.7104 N   0  0  0  0  0  0  0  0  0  0  0  0
  -12.5305    3.1524    0.7792 C   0  0  0  0  0  0  0  0  0  0  0  0
  -12.6276    1.9298    0.4935 O   0  0  0  0  0  0  0  0  0  0  0  0
  -13.6790    3.9928    1.2297 C   0  0  0  0  0  0  0  0  0  0  0  0
  -13.0573    5.3890    1.4419 C   0  0  0  0  0  0  0  0  0  0  0  0
  -11.6197    5.1999    1.0899 C   0  0  0  0  0  0  0  0  0  0  0  0
  -10.7656    6.1256    1.1132 O   0  0  0  0  0  0  0  0  0  0  0  0
   -8.8773    3.8503    4.9076 N   0  0  0  0  0  0  0  0  0  0  0  0
  -10.1290    4.6074    4.9414 C   0  0  0  0  0  0  0  0  0  0  0  0
  1  3  4  0
  1 14  4  0
  1  2  1  0
  3  4  4  0
  4  5  4  0
  5  6  4  0
  5 22  1  0
  6  7  1  0
  6 14  4  0
  7  8  1  0
  8  9  4  0
  8 12  4  0
  9 10  4  0
 10 11  4  0
 11 12  4  0
 12 13  1  0
 13 14  1  0
 13 15  1  6
 15 16  4  0
 15 20  4  0
 16 17  4  0
 17 18  4  0
 17 21  1  0
 18 19  4  0
 19 20  4  0
 23 24  4  0
 24 25  4  0
 25 26  1  0
 26 27  1  0
 27 28  1  0
 28 29  1  0
 29 30  1  0
 30 31  2  0
 30 32  1  0
 32 33  1  0
 33 34  1  0
 34 35  2  0
 25 36  4  0
 36 37  1  0
 34 29  1  0
  2 23  4  0
  2 36  4  0
M  END
$$$$

     RDKit          3D

 37 43  0  0  0  0  0  0  0  0999 V2000
   -7.6410    4.9930    6.8080 C   0  0  0  0  0  0  0  0  0  1  0  0
   -7.7310    4.0530    5.7140 C   0  0  0  0  0  0  0  0  0  2  0  0
   -6.4520    5.6300    6.8680 N   0  0  0  0  0  0  0  0  0  0  0  0
   -6.2260    6.5240    7.8670 N   0  0  0  0  0  0  0  0  0  0  0  0
   -7.1930    6.7500    8.7820 C   0  0  0  0  0  0  0  0  0  0  0  0
   -8.4240    6.1170    8.7580 C   0  0  0  0  0  0  0  0  0  0  0  0
   -9.3950    6.3570    9.7450 N   0  0  0  0  0  0  0  0  0  0  0  0
  -10.5620    5.6840    9.7600 C   0  0  0  0  0  0  0  0  0  0  0  0
  -11.5770    5.6820   10.5960 N   0  0  0  0  0  0  0  0  0  0  0  0
  -12.4690    4.7490   10.1080 N   0  0  0  0  0  0  0  0  0  0  0  0
  -12.0160    4.1880    8.9920 N   0  0  0  0  0  0  0  0  0  0  0  0
  -10.8400    4.7900    8.7610 N   0  0  0  0  0  0  0  0  0  0  0  0
   -9.9950    4.4790    7.6090 C   0  0  0  0  0  0  0  0  0  0  0  0
   -8.6630    5.2070    7.7200 C   0  0  0  0  0  0  0  0  0  0  0  0
  -10.7490    4.8610    6.3730 C   0  0  0  0  0  0  0  0  0  0  0  0
  -11.0350    6.2020    6.1170 C   0  0  0  0  0  0  0  0  0  0  0  0
  -11.7370    6.5580    4.9650 C   0  0  0  0  0  0  0  0  0  0  0  0
  -12.1550    5.5730    4.0710 C   0  0  0  0  0  0  0  0  0  0  0  0
  -11.8700    4.2310    4.3270 C   0  0  0  0  0  0  0  0  0  0  0  0
  -11.1660    3.8760    5.4790 C   0  0  0  0  0  0  0  0  0  0  0  0
  -12.0160    7.8660    4.7150 O   0  0  0  0  0  0  0  0  0  0  0  0
   -6.8990    7.6510    9.7710 O   0  0  0  0  0  0  0  0  0  0  0  0
   -6.8596    3.0817    5.3506 N   0  0  0  0  0  0  0  0  0  0  0  0
   -7.4501    2.3877    4.3616 C   0  0  0  0  0  0  0  0  0  0  0  0
   -6.9175    1.3235    3.6397 C   0  0  0  0  0  0  0  0  0  0  0  0
   -7.7181    0.7318    2.6393 C   0  0  0  0  0  0  0  0  0  0  0  0
   -7.1873   -0.3576    1.8689 N   0  0  0  0  0  0  0  0  0  0  0  0
   -7.9488   -1.5036    1.4575 C   0  0  0  0  0  0  0  0  0  0  0  0
   -7.5044   -2.2358    0.5338 O   0  0  0  0  0  0  0  0  0  0  0  0
   -9.2530   -1.8691    2.1110 C   0  0  0  0  0  0  0  0  0  0  0  0
   -9.2001   -2.0307    3.6244 C   0  0  0  0  0  0  0  0  0  0  0  0
   -9.2671   -3.2580    2.7346 C   0  0  0  0  0  0  0  0  0  0  0  0
   -9.0122    1.2551    2.3740 C   0  0  0  0  0  0  0  0  0  0  0  0
   -9.5177    2.3343    3.1219 C   0  0  0  0  0  0  0  0  0  0  0  0
   -8.6998    2.8728    4.1157 C   0  0  0  0  0  0  0  0  0  0  0  0
   -8.9382    3.9053    4.9413 N   0  0  0  0  0  0  0  0  0  0  0  0
  -10.1267    4.7568    4.9596 C   0  0  0  0  0  0  0  0  0  0  0  0
  1  3  4  0
  1 14  4  0
  1  2  1  0
  3  4  4  0
  4  5  4  0
  5  6  4  0
  5 22  1  0
  6  7  1  0
  6 14  4  0
  7  8  1  0
  8  9  4  0
  8 12  4  0
  9 10  4  0
 10 11  4  0
 11 12  4  0
 12 13  1  0
 13 14  1  0
 13 15  1  6
 15 16  4  0
 15 20  4  0
 16 17  4  0
 17 18  4  0
 17 21  1  0
 18 19  4  0
 19 20  4  0
 23 24  4  0
 24 25  4  0
 25 26  4  0
 26 27  1  0
 27 28  1  0
 28 29  2  0
 28 30  1  0
 30 31  1  0
 31 32  1  0
 26 33  4  0
 33 34  4  0
 34 35  4  0
 35 36  4  0
 36 37  1  0
 35 24  4  0
 32 30  1  0
  2 23  4  0
  2 36  4  0
M  END
$$$$

     RDKit          3D

 44 50  0  0  0  0  0  0  0  0999 V2000
   -7.6410    4.9930    6.8080 C   0  0  0  0  0  0  0  0  0  1  0  0
   -7.7310    4.0530    5.7140 C   0  0  0  0  0  0  0  0  0  2  0  0
   -6.4520    5.6300    6.8680 N   0  0  0  0  0  0  0  0  0  0  0  0
   -6.2260    6.5240    7.8670 N   0  0  0  0  0  0  0  0  0  0  0  0
   -7.1930    6.7500    8.7820 C   0  0  0  0  0  0  0  0  0  0  0  0
   -8.4240    6.1170    8.7580 C   0  0  0  0  0  0  0  0  0  0  0  0
   -9.3950    6.3570    9.7450 N   0  0  0  0  0  0  0  0  0  0  0  0
  -10.5620    5.6840    9.7600 C   0  0  0  0  0  0  0  0  0  0  0  0
  -11.5770    5.6820   10.5960 N   0  0  0  0  0  0  0  0  0  0  0  0
  -12.4690    4.7490   10.1080 N   0  0  0  0  0  0  0  0  0  0  0  0
  -12.0160    4.1880    8.9920 N   0  0  0  0  0  0  0  0  0  0  0  0
  -10.8400    4.7900    8.7610 N   0  0  0  0  0  0  0  0  0  0  0  0
   -9.9950    4.4790    7.6090 C   0  0  0  0  0  0  0  0  0  0  0  0
   -8.6630    5.2070    7.7200 C   0  0  0  0  0  0  0  0  0  0  0  0
  -10.7490    4.8610    6.3730 C   0  0  0  0  0  0  0  0  0  0  0  0
  -11.0350    6.2020    6.1170 C   0  0  0  0  0  0  0  0  0  0  0  0
  -11.7370    6.5580    4.9650 C   0  0  0  0  0  0  0  0  0  0  0  0
  -12.1550    5.5730    4.0710 C   0  0  0  0  0  0  0  0  0  0  0  0
  -11.8700    4.2310    4.3270 C   0  0  0  0  0  0  0  0  0  0  0  0
  -11.1660    3.8760    5.4790 C   0  0  0  0  0  0  0  0  0  0  0  0
  -12.0160    7.8660    4.7150 O   0  0  0  0  0  0  0  0  0  0  0  0
   -6.8990    7.6510    9.7710 O   0  0  0  0  0  0  0  0  0  0  0  0
   -6.7958    3.2398    5.1934 N   0  0  0  0  0  0  0  0  0  0  0  0
   -7.3456    2.5361    4.1811 C   0  0  0  0  0  0  0  0  0  1  0  0
   -6.6011    1.6017    3.3008 C   0  0  0  0  0  0  0  0  0  2  0  0
   -5.3125    1.1466    3.6338 C   0  0  0  0  0  0  0  0  0  0  0  0
   -4.6284    0.2705    2.7830 C   0  0  0  0  0  0  0  0  0  0  0  0
   -5.2212   -0.1717    1.5916 C   0  0  0  0  0  0  0  0  0  0  0  0
   -4.4822   -1.0893    0.6620 C   0  0  0  0  0  0  0  0  0  0  0  0
   -6.4966    0.2921    1.2474 C   0  0  0  0  0  0  0  0  0  0  0  0
   -7.1838    1.1636    2.0975 C   0  0  0  0  0  0  0  0  0  0  0  0
   -8.6510    2.8252    3.9988 N   0  0  0  0  0  0  0  0  0  0  0  0
   -8.9270    3.7425    4.9436 C   0  0  0  0  0  0  0  0  0  0  0  0
  -10.4964    4.6122    5.0151 S   0  0  0  0  0  0  0  0  0  0  0  0
   -9.9750    5.9456    3.8811 C   0  0  0  0  0  0  0  0  0  0  0  0
   -9.7283    5.4032    2.4983 C   0  0  0  0  0  0  0  0  0  0  0  0
  -10.6991    4.8999    1.8761 O   0  0  0  0  0  0  0  0  0  0  0  0
   -8.4313    5.3925    1.8727 N   0  0  0  0  0  0  0  0  0  0  0  0
   -7.1899    5.8839    2.4716 C   0  0  0  0  0  0  0  0  0  0  0  0
   -6.9779    7.3693    2.1464 C   0  0  0  0  0  0  0  0  0  0  0  0
   -5.6275    7.8732    2.6660 C   0  0  0  0  0  0  0  0  0  0  0  0
   -5.9937    8.9013    3.6956 C   0  0  0  0  0  0  0  0  0  0  0  0
   -7.4161    9.2575    3.3285 C   0  0  0  0  0  0  0  0  0  0  0  0
   -8.0146    8.1399    2.7161 O   0  0  0  0  0  0  0  0  0  0  0  0
  1  3  4  0
  1 14  4  0
  1  2  1  0
  3  4  4  0
  4  5  4  0
  5  6  4  0
  5 22  1  0
  6  7  1  0
  6 14  4  0
  7  8  1  0
  8  9  4  0
  8 12  4  0
  9 10  4  0
 10 11  4  0
 11 12  4  0
 12 13  1  0
 13 14  1  0
 13 15  1  6
 15 16  4  0
 15 20  4  0
 16 17  4  0
 17 18  4  0
 17 21  1  0
 18 19  4  0
 19 20  4  0
 23 24  4  0
 24 25  1  0
 25 26  4  0
 26 27  4  0
 27 28  4  0
 28 29  1  0
 28 30  4  0
 30 31  4  0
 24 32  4  0
 32 33  4  0
 33 34  1  0
 34 35  1  0
 35 36  1  0
 36 37  2  0
 36 38  1  0
 38 39  1  0
 39 40  1  0
 40 41  1  0
 41 42  1  0
 42 43  1  0
 43 44  1  0
 44 40  1  0
 31 25  4  0
  2 23  4  0
  2 33  4  0
M  END
$$$$

     RDKit          3D

 44 50  0  0  0  0  0  0  0  0999 V2000
   -7.6410    4.9930    6.8080 C   0  0  0  0  0  0  0  0  0  1  0  0
   -7.7310    4.0530    5.7140 C   0  0  0  0  0  0  0  0  0  2  0  0
   -6.4520    5.6300    6.8680 N   0  0  0  0  0  0  0  0  0  0  0  0
   -6.2260    6.5240    7.8670 N   0  0  0  0  0  0  0  0  0  0  0  0
   -7.1930    6.7500    8.7820 C   0  0  0  0  0  0  0  0  0  0  0  0
   -8.4240    6.1170    8.7580 C   0  0  0  0  0  0  0  0  0  0  0  0
   -9.3950    6.3570    9.7450 N   0  0  0  0  0  0  0  0  0  0  0  0
  -10.5620    5.6840    9.7600 C   0  0  0  0  0  0  0  0  0  0  0  0
  -11.5770    5.6820   10.5960 N   0  0  0  0  0  0  0  0  0  0  0  0
  -12.4690    4.7490   10.1080 N   0  0  0  0  0  0  0  0  0  0  0  0
  -12.0160    4.1880    8.9920 N   0  0  0  0  0  0  0  0  0  0  0  0
  -10.8400    4.7900    8.7610 N   0  0  0  0  0  0  0  0  0  0  0  0
   -9.9950    4.4790    7.6090 C   0  0  0  0  0  0  0  0  0  0  0  0
   -8.6630    5.2070    7.7200 C   0  0  0  0  0  0  0  0  0  0  0  0
  -10.7490    4.8610    6.3730 C   0  0  0  0  0  0  0  0  0  0  0  0
  -11.0350    6.2020    6.1170 C   0  0  0  0  0  0  0  0  0  0  0  0
  -11.7370    6.5580    4.9650 C   0  0  0  0  0  0  0  0  0  0  0  0
  -12.1550    5.5730    4.0710 C   0  0  0  0  0  0  0  0  0  0  0  0
  -11.8700    4.2310    4.3270 C   0  0  0  0  0  0  0  0  0  0  0  0
  -11.1660    3.8760    5.4790 C   0  0  0  0  0  0  0  0  0  0  0  0
  -12.0160    7.8660    4.7150 O   0  0  0  0  0  0  0  0  0  0  0  0
   -6.8990    7.6510    9.7710 O   0  0  0  0  0  0  0  0  0  0  0  0
   -6.8026    3.2036    5.2404 N   0  0  0  0  0  0  0  0  0  0  0  0
   -7.3459    2.4984    4.2222 C   0  0  0  0  0  0  0  0  0  1  0  0
   -6.6227    1.4804    3.4172 C   0  0  0  0  0  0  0  0  0  2  0  0
   -7.3002    0.7863    2.3975 C   0  0  0  0  0  0  0  0  0  0  0  0
   -6.6372   -0.1712    1.6247 C   0  0  0  0  0  0  0  0  0  0  0  0
   -5.2882   -0.4639    1.8652 C   0  0  0  0  0  0  0  0  0  0  0  0
   -4.5670   -1.4609    1.0075 C   0  0  0  0  0  0  0  0  0  0  0  0
   -4.6016    0.2353    2.8671 C   0  0  0  0  0  0  0  0  0  0  0  0
   -5.2623    1.1947    3.6402 C   0  0  0  0  0  0  0  0  0  0  0  0
   -8.6374    2.8284    3.9948 N   0  0  0  0  0  0  0  0  0  0  0  0
   -8.9089    3.7716    4.9157 C   0  0  0  0  0  0  0  0  0  0  0  0
  -10.4741    4.6450    4.9851 S   0  0  0  0  0  0  0  0  0  0  0  0
   -9.9141    5.9657    3.8623 C   0  0  0  0  0  0  0  0  0  0  0  0
  -11.0239    6.9420    3.6373 C   0  0  0  0  0  0  0  0  0  0  0  0
  -10.8924    8.1324    4.0309 O   0  0  0  0  0  0  0  0  0  0  0  0
  -12.2227    6.5259    2.9669 N   0  0  0  0  0  0  0  0  0  0  0  0
  -13.3001    7.4538    2.6281 C   0  0  0  0  0  0  0  0  0  0  0  0
  -13.0967    8.0176    1.2133 C   0  0  0  0  0  0  0  0  0  0  0  0
  -14.2089    8.9885    0.8323 C   0  0  0  0  0  0  0  0  0  0  0  0
  -13.5832   10.3286    1.0558 C   0  0  0  0  0  0  0  0  0  0  0  0
  -12.1090   10.0466    0.8686 C   0  0  0  0  0  0  0  0  0  0  0  0
  -11.8553    8.6880    1.1427 O   0  0  0  0  0  0  0  0  0  0  0  0
  1  3  4  0
  1 14  4  0
  1  2  1  0
  3  4  4  0
  4  5  4  0
  5  6  4  0
  5 22  1  0
  6  7  1  0
  6 14  4  0
  7  8  1  0
  8  9  4  0
  8 12  4  0
  9 10  4  0
 10 11  4  0
 11 12  4  0
 12 13  1  0
 13 14  1  0
 13 15  1  6
 15 16  4  0
 15 20  4  0
 16 17  4  0
 17 18  4  0
 17 21  1  0
 18 19  4  0
 19 20  4  0
 23 24  4  0
 24 25  1  0
 25 26  4  0
 26 27  4  0
 27 28  4  0
 28 29  1  0
 28 30  4  0
 30 31  4  0
 24 32  4  0
 32 33  4  0
 33 34  1  0
 34 35  1  0
 35 36  1  0
 36 37  2  0
 36 38  1  0
 38 39  1  0
 39 40  1  0
 40 41  1  0
 41 42  1  0
 42 43  1  0
 43 44  1  0
 44 40  1  0
 31 25  4  0
  2 23  4  0
  2 33  4  0
M  END
$$$$

     RDKit          3D

 44 50  0  0  0  0  0  0  0  0999 V2000
   -7.6410    4.9930    6.8080 C   0  0  0  0  0  0  0  0  0  1  0  0
   -7.7310    4.0530    5.7140 C   0  0  0  0  0  0  0  0  0  2  0  0
   -6.4520    5.6300    6.8680 N   0  0  0  0  0  0  0  0  0  0  0  0
   -6.2260    6.5240    7.8670 N   0  0  0  0  0  0  0  0  0  0  0  0
   -7.1930    6.7500    8.7820 C   0  0  0  0  0  0  0  0  0  0  0  0
   -8.4240    6.1170    8.7580 C   0  0  0  0  0  0  0  0  0  0  0  0
   -9.3950    6.3570    9.7450 N   0  0  0  0  0  0  0  0  0  0  0  0
  -10.5620    5.6840    9.7600 C   0  0  0  0  0  0  0  0  0  0  0  0
  -11.5770    5.6820   10.5960 N   0  0  0  0  0  0  0  0  0  0  0  0
  -12.4690    4.7490   10.1080 N   0  0  0  0  0  0  0  0  0  0  0  0
  -12.0160    4.1880    8.9920 N   0  0  0  0  0  0  0  0  0  0  0  0
  -10.8400    4.7900    8.7610 N   0  0  0  0  0  0  0  0  0  0  0  0
   -9.9950    4.4790    7.6090 C   0  0  0  0  0  0  0  0  0  0  0  0
   -8.6630    5.2070    7.7200 C   0  0  0  0  0  0  0  0  0  0  0  0
  -10.7490    4.8610    6.3730 C   0  0  0  0  0  0  0  0  0  0  0  0
  -11.0350    6.2020    6.1170 C   0  0  0  0  0  0  0  0  0  0  0  0
  -11.7370    6.5580    4.9650 C   0  0  0  0  0  0  0  0  0  0  0  0
  -12.1550    5.5730    4.0710 C   0  0  0  0  0  0  0  0  0  0  0  0
  -11.8700    4.2310    4.3270 C   0  0  0  0  0  0  0  0  0  0  0  0
  -11.1660    3.8760    5.4790 C   0  0  0  0  0  0  0  0  0  0  0  0
  -12.0160    7.8660    4.7150 O   0  0  0  0  0  0  0  0  0  0  0  0
   -6.8990    7.6510    9.7710 O   0  0  0  0  0  0  0  0  0  0  0  0
   -6.7984    3.2058    5.2426 N   0  0  0  0  0  0  0  0  0  0  0  0
   -7.3135    2.5522    4.1776 C   0  0  0  0  0  0  0  0  0  1  0  0
   -6.5780    1.5575    3.3568 C   0  0  0  0  0  0  0  0  0  2  0  0
   -7.1691    1.0433    2.1887 C   0  0  0  0  0  0  0  0  0  0  0  0
   -6.4971    0.1015    1.4052 C   0  0  0  0  0  0  0  0  0  0  0  0
   -5.2274   -0.3561    1.7823 C   0  0  0  0  0  0  0  0  0  0  0  0
   -4.4877   -1.3435    0.9303 C   0  0  0  0  0  0  0  0  0  0  0  0
   -4.6258    0.1620    2.9372 C   0  0  0  0  0  0  0  0  0  0  0  0
   -5.2967    1.1038    3.7230 C   0  0  0  0  0  0  0  0  0  0  0  0
   -8.5879    2.9167    3.9141 N   0  0  0  0  0  0  0  0  0  0  0  0
   -8.8844    3.8168    4.8697 C   0  0  0  0  0  0  0  0  0  0  0  0
  -10.4423    4.7069    4.9162 S   0  0  0  0  0  0  0  0  0  0  0  0
  -11.3787    3.3505    5.7042 C   0  0  0  0  0  0  0  0  0  0  0  0
  -11.6211    2.2249    4.7369 C   0  0  0  0  0  0  0  0  0  0  0  0
  -11.0474    1.1199    4.9364 O   0  0  0  0  0  0  0  0  0  0  0  0
  -12.4843    2.3654    3.5982 N   0  0  0  0  0  0  0  0  0  0  0  0
  -13.3405    3.5338    3.3784 C   0  0  0  0  0  0  0  0  0  0  0  0
  -14.2611    3.3355    2.1643 C   0  0  0  0  0  0  0  0  0  0  0  0
  -15.2583    2.2000    2.3681 C   0  0  0  0  0  0  0  0  0  0  0  0
  -16.4568    2.6778    1.6114 C   0  0  0  0  0  0  0  0  0  0  0  0
  -16.3210    4.1845    1.6772 C   0  0  0  0  0  0  0  0  0  0  0  0
  -14.9728    4.5280    1.9101 O   0  0  0  0  0  0  0  0  0  0  0  0
  1  3  4  0
  1 14  4  0
  1  2  1  0
  3  4  4  0
  4  5  4  0
  5  6  4  0
  5 22  1  0
  6  7  1  0
  6 14  4  0
  7  8  1  0
  8  9  4  0
  8 12  4  0
  9 10  4  0
 10 11  4  0
 11 12  4  0
 12 13  1  0
 13 14  1  0
 13 15  1  6
 15 16  4  0
 15 20  4  0
 16 17  4  0
 17 18  4  0
 17 21  1  0
 18 19  4  0
 19 20  4  0
 23 24  4  0
 24 25  1  0
 25 26  4  0
 26 27  4  0
 27 28  4  0
 28 29  1  0
 28 30  4  0
 30 31  4  0
 24 32  4  0
 32 33  4  0
 33 34  1  0
 34 35  1  0
 35 36  1  0
 36 37  2  0
 36 38  1  0
 38 39  1  0
 39 40  1  0
 40 41  1  0
 41 42  1  0
 42 43  1  0
 43 44  1  0
 44 40  1  0
 31 25  4  0
  2 23  4  0
  2 33  4  0
M  END
$$$$

     RDKit          3D

 44 50  0  0  0  0  0  0  0  0999 V2000
   -7.6410    4.9930    6.8080 C   0  0  0  0  0  0  0  0  0  1  0  0
   -7.7310    4.0530    5.7140 C   0  0  0  0  0  0  0  0  0  2  0  0
   -6.4520    5.6300    6.8680 N   0  0  0  0  0  0  0  0  0  0  0  0
   -6.2260    6.5240    7.8670 N   0  0  0  0  0  0  0  0  0  0  0  0
   -7.1930    6.7500    8.7820 C   0  0  0  0  0  0  0  0  0  0  0  0
   -8.4240    6.1170    8.7580 C   0  0  0  0  0  0  0  0  0  0  0  0
   -9.3950    6.3570    9.7450 N   0  0  0  0  0  0  0  0  0  0  0  0
  -10.5620    5.6840    9.7600 C   0  0  0  0  0  0  0  0  0  0  0  0
  -11.5770    5.6820   10.5960 N   0  0  0  0  0  0  0  0  0  0  0  0
  -12.4690    4.7490   10.1080 N   0  0  0  0  0  0  0  0  0  0  0  0
  -12.0160    4.1880    8.9920 N   0  0  0  0  0  0  0  0  0  0  0  0
  -10.8400    4.7900    8.7610 N   0  0  0  0  0  0  0  0  0  0  0  0
   -9.9950    4.4790    7.6090 C   0  0  0  0  0  0  0  0  0  0  0  0
   -8.6630    5.2070    7.7200 C   0  0  0  0  0  0  0  0  0  0  0  0
  -10.7490    4.8610    6.3730 C   0  0  0  0  0  0  0  0  0  0  0  0
  -11.0350    6.2020    6.1170 C   0  0  0  0  0  0  0  0  0  0  0  0
  -11.7370    6.5580    4.9650 C   0  0  0  0  0  0  0  0  0  0  0  0
  -12.1550    5.5730    4.0710 C   0  0  0  0  0  0  0  0  0  0  0  0
  -11.8700    4.2310    4.3270 C   0  0  0  0  0  0  0  0  0  0  0  0
  -11.1660    3.8760    5.4790 C   0  0  0  0  0  0  0  0  0  0  0  0
  -12.0160    7.8660    4.7150 O   0  0  0  0  0  0  0  0  0  0  0  0
   -6.8990    7.6510    9.7710 O   0  0  0  0  0  0  0  0  0  0  0  0
   -6.8067    3.1944    5.2492 N   0  0  0  0  0  0  0  0  0  0  0  0
   -7.3496    2.4930    4.2286 C   0  0  0  0  0  0  0  0  0  1  0  0
   -6.6313    1.4622    3.4387 C   0  0  0  0  0  0  0  0  0  2  0  0
   -7.3446    0.6423    2.5456 C   0  0  0  0  0  0  0  0  0  0  0  0
   -6.6850   -0.3340    1.7934 C   0  0  0  0  0  0  0  0  0  0  0  0
   -5.2976   -0.4973    1.9071 C   0  0  0  0  0  0  0  0  0  0  0  0
   -4.5947   -1.5696    1.1282 C   0  0  0  0  0  0  0  0  0  0  0  0
   -4.5822    0.3085    2.8031 C   0  0  0  0  0  0  0  0  0  0  0  0
   -5.2400    1.2849    3.5574 C   0  0  0  0  0  0  0  0  0  0  0  0
   -8.6369    2.8321    3.9920 N   0  0  0  0  0  0  0  0  0  0  0  0
   -8.9048    3.7831    4.9063 C   0  0  0  0  0  0  0  0  0  0  0  0
  -10.4668    4.6669    4.9742 S   0  0  0  0  0  0  0  0  0  0  0  0
   -9.9102    6.0620    3.9358 C   0  0  0  0  0  0  0  0  0  0  0  0
  -10.1760    5.7698    2.4839 C   0  0  0  0  0  0  0  0  0  0  0  0
   -9.5099    4.8612    1.9194 O   0  0  0  0  0  0  0  0  0  0  0  0
  -11.1574    6.4864    1.7166 N   0  0  0  0  0  0  0  0  0  0  0  0
  -11.9926    7.5545    2.2700 C   0  0  0  0  0  0  0  0  0  0  0  0
  -12.9745    8.1043    1.2239 C   0  0  0  0  0  0  0  0  0  0  0  0
  -12.2645    8.7668    0.0462 C   0  0  0  0  0  0  0  0  0  0  0  0
  -13.1532    9.9261   -0.2711 C   0  0  0  0  0  0  0  0  0  0  0  0
  -13.8068   10.2208    1.0604 C   0  0  0  0  0  0  0  0  0  0  0  0
  -13.8345    9.0438    1.8341 O   0  0  0  0  0  0  0  0  0  0  0  0
  1  3  4  0
  1 14  4  0
  1  2  1  0
  3  4  4  0
  4  5  4  0
  5  6  4  0
  5 22  1  0
  6  7  1  0
  6 14  4  0
  7  8  1  0
  8  9  4  0
  8 12  4  0
  9 10  4  0
 10 11  4  0
 11 12  4  0
 12 13  1  0
 13 14  1  0
 13 15  1  6
 15 16  4  0
 15 20  4  0
 16 17  4  0
 17 18  4  0
 17 21  1  0
 18 19  4  0
 19 20  4  0
 23 24  4  0
 24 25  1  0
 25 26  4  0
 26 27  4  0
 27 28  4  0
 28 29  1  0
 28 30  4  0
 30 31  4  0
 24 32  4  0
 32 33  4  0
 33 34  1  0
 34 35  1  0
 35 36  1  0
 36 37  2  0
 36 38  1  0
 38 39  1  0
 39 40  1  0
 40 41  1  0
 41 42  1  0
 42 43  1  0
 43 44  1  0
 44 40  1  0
 31 25  4  0
  2 23  4  0
  2 33  4  0
M  END
$$$$

     RDKit          3D

 28 32  0  0  0  0  0  0  0  0999 V2000
   -7.6410    4.9930    6.8080 C   0  0  0  0  0  0  0  0  0  1  0  0
   -7.7310    4.0530    5.7140 C   0  0  0  0  0  0  0  0  0  2  0  0
   -6.4520    5.6300    6.8680 N   0  0  0  0  0  0  0  0  0  0  0  0
   -6.2260    6.5240    7.8670 N   0  0  0  0  0  0  0  0  0  0  0  0
   -7.1930    6.7500    8.7820 C   0  0  0  0  0  0  0  0  0  0  0  0
   -8.4240    6.1170    8.7580 C   0  0  0  0  0  0  0  0  0  0  0  0
   -9.3950    6.3570    9.7450 N   0  0  0  0  0  0  0  0  0  0  0  0
  -10.5620    5.6840    9.7600 C   0  0  0  0  0  0  0  0  0  0  0  0
  -11.5770    5.6820   10.5960 N   0  0  0  0  0  0  0  0  0  0  0  0
  -12.4690    4.7490   10.1080 N   0  0  0  0  0  0  0  0  0  0  0  0
  -12.0160    4.1880    8.9920 N   0  0  0  0  0  0  0  0  0  0  0  0
  -10.8400    4.7900    8.7610 N   0  0  0  0  0  0  0  0  0  0  0  0
   -9.9950    4.4790    7.6090 C   0  0  0  0  0  0  0  0  0  0  0  0
   -8.6630    5.2070    7.7200 C   0  0  0  0  0  0  0  0  0  0  0  0
  -10.7490    4.8610    6.3730 C   0  0  0  0  0  0  0  0  0  0  0  0
  -11.0350    6.2020    6.1170 C   0  0  0  0  0  0  0  0  0  0  0  0
  -11.7370    6.5580    4.9650 C   0  0  0  0  0  0  0  0  0  0  0  0
  -12.1550    5.5730    4.0710 C   0  0  0  0  0  0  0  0  0  0  0  0
  -11.8700    4.2310    4.3270 C   0  0  0  0  0  0  0  0  0  0  0  0
  -11.1660    3.8760    5.4790 C   0  0  0  0  0  0  0  0  0  0  0  0
  -12.0160    7.8660    4.7150 O   0  0  0  0  0  0  0  0  0  0  0  0
   -6.8990    7.6510    9.7710 O   0  0  0  0  0  0  0  0  0  0  0  0
   -6.8695    3.0460    5.3064 C   0  0  0  0  0  0  0  0  0  0  0  0
   -7.4427    2.3536    4.2573 C   0  0  0  0  0  0  0  0  0  0  0  0
   -6.7907    1.2540    3.4846 C   0  0  0  0  0  0  0  0  0  0  0  0
   -8.6547    2.8602    3.9616 N   0  0  0  0  0  0  0  0  0  0  0  0
   -8.8760    3.8715    4.8229 C   0  0  0  0  0  0  0  0  0  0  0  0
  -10.0991    4.7338    4.7709 C   0  0  0  0  0  0  0  0  0  0  0  0
  1  3  4  0
  1 14  4  0
  1  2  1  0
  3  4  4  0
  4  5  4  0
  5  6  4  0
  5 22  1  0
  6  7  1  0
  6 14  4  0
  7  8  1  0
  8  9  4  0
  8 12  4  0
  9 10  4  0
 10 11  4  0
 11 12  4  0
 12 13  1  0
 13 14  1  0
 13 15  1  6
 15 16  4  0
 15 20  4  0
 16 17  4  0
 17 18  4  0
 17 21  1  0
 18 19  4  0
 19 20  4  0
 23 24  4  0
 24 25  1  0
 24 26  4  0
 26 27  4  0
 27 28  1  0
  2 23  4  0
  2 27  4  0
M  END
$$$$

     RDKit          3D

 43 49  0  0  0  0  0  0  0  0999 V2000
   -7.6410    4.9930    6.8080 C   0  0  0  0  0  0  0  0  0  1  0  0
   -7.7310    4.0530    5.7140 C   0  0  0  0  0  0  0  0  0  2  0  0
   -6.4520    5.6300    6.8680 N   0  0  0  0  0  0  0  0  0  0  0  0
   -6.2260    6.5240    7.8670 N   0  0  0  0  0  0  0  0  0  0  0  0
   -7.1930    6.7500    8.7820 C   0  0  0  0  0  0  0  0  0  0  0  0
   -8.4240    6.1170    8.7580 C   0  0  0  0  0  0  0  0  0  0  0  0
   -9.3950    6.3570    9.7450 N   0  0  0  0  0  0  0  0  0  0  0  0
  -10.5620    5.6840    9.7600 C   0  0  0  0  0  0  0  0  0  0  0  0
  -11.5770    5.6820   10.5960 N   0  0  0  0  0  0  0  0  0  0  0  0
  -12.4690    4.7490   10.1080 N   0  0  0  0  0  0  0  0  0  0  0  0
  -12.0160    4.1880    8.9920 N   0  0  0  0  0  0  0  0  0  0  0  0
  -10.8400    4.7900    8.7610 N   0  0  0  0  0  0  0  0  0  0  0  0
   -9.9950    4.4790    7.6090 C   0  0  0  0  0  0  0  0  0  0  0  0
   -8.6630    5.2070    7.7200 C   0  0  0  0  0  0  0  0  0  0  0  0
  -10.7490    4.8610    6.3730 C   0  0  0  0  0  0  0  0  0  0  0  0
  -11.0350    6.2020    6.1170 C   0  0  0  0  0  0  0  0  0  0  0  0
  -11.7370    6.5580    4.9650 C   0  0  0  0  0  0  0  0  0  0  0  0
  -12.1550    5.5730    4.0710 C   0  0  0  0  0  0  0  0  0  0  0  0
  -11.8700    4.2310    4.3270 C   0  0  0  0  0  0  0  0  0  0  0  0
  -11.1660    3.8760    5.4790 C   0  0  0  0  0  0  0  0  0  0  0  0
  -12.0160    7.8660    4.7150 O   0  0  0  0  0  0  0  0  0  0  0  0
   -6.8990    7.6510    9.7710 O   0  0  0  0  0  0  0  0  0  0  0  0
   -8.7277    4.2076    4.6503 C   0  0  0  0  0  0  0  0  0  0  0  0
   -9.5930    5.4322    4.5959 C   0  0  0  0  0  0  0  0  0  0  0  0
   -8.8660    3.3019    3.6857 O   0  0  0  0  0  0  0  0  0  0  0  0
   -8.1445    2.1886    3.6254 C   0  0  0  0  0  0  0  0  0  0  0  0
   -8.3519    1.2882    2.5746 C   0  0  0  0  0  0  0  0  0  0  0  0
   -7.5997    0.1016    2.4954 C   0  0  0  0  0  0  0  0  0  0  0  0
   -7.7663   -0.8225    1.4533 O   0  0  0  0  0  0  0  0  0  0  0  0
   -8.9621   -1.0579    0.7595 C   0  0  0  0  0  0  0  0  0  0  0  0
  -10.0644   -0.6765    1.2407 O   0  0  0  0  0  0  0  0  0  0  0  0
   -8.9330   -1.8099   -0.5144 C   0  0  0  0  0  0  0  0  0  0  0  0
  -10.1225   -2.0817   -1.2164 C   0  0  0  0  0  0  0  0  0  0  0  0
  -10.0873   -2.7916   -2.4207 C   0  0  0  0  0  0  0  0  0  0  0  0
   -8.8674   -3.2370   -2.9376 C   0  0  0  0  0  0  0  0  0  0  0  0
   -8.8261   -4.1271   -4.4486 Cl  0  0  0  0  0  0  0  0  0  0  0  0
   -7.6804   -2.9715   -2.2489 C   0  0  0  0  0  0  0  0  0  0  0  0
   -7.7109   -2.2620   -1.0442 C   0  0  0  0  0  0  0  0  0  0  0  0
   -6.6201   -0.1544    3.4614 C   0  0  0  0  0  0  0  0  0  0  0  0
   -6.4080    0.7380    4.5156 C   0  0  0  0  0  0  0  0  0  0  0  0
   -7.1710    1.9153    4.6088 C   0  0  0  0  0  0  0  0  0  0  0  0
   -6.9970    2.8397    5.6512 C   0  0  0  0  0  0  0  0  0  0  0  0
   -6.1446    2.6257    6.5580 O   0  0  0  0  0  0  0  0  0  0  0  0
  1  3  4  0
  1 14  4  0
  1  2  1  0
  3  4  4  0
  4  5  4  0
  5  6  4  0
  5 22  1  0
  6  7  1  0
  6 14  4  0
  7  8  1  0
  8  9  4  0
  8 12  4  0
  9 10  4  0
 10 11  4  0
 11 12  4  0
 12 13  1  0
 13 14  1  0
 13 15  1  6
 15 16  4  0
 15 20  4  0
 16 17  4  0
 17 18  4  0
 17 21  1  0
 18 19  4  0
 19 20  4  0
 23 24  1  0
 23 25  4  0
 25 26  4  0
 26 27  4  0
 27 28  4  0
 28 29  1  0
 29 30  1  0
 30 31  2  0
 30 32  1  0
 32 33  4  0
 33 34  4  0
 34 35  4  0
 35 36  1  0
 35 37  4  0
 37 38  4  0
 28 39  4  0
 39 40  4  0
 40 41  4  0
 41 42  4  0
 42 43  2  0
 41 26  4  0
 38 32  4  0
  2 23  4  0
  2 42  4  0
M  END
$$$$

     RDKit          3D

 43 49  0  0  0  0  0  0  0  0999 V2000
   -7.6410    4.9930    6.8080 C   0  0  0  0  0  0  0  0  0  1  0  0
   -7.7310    4.0530    5.7140 C   0  0  0  0  0  0  0  0  0  2  0  0
   -6.4520    5.6300    6.8680 N   0  0  0  0  0  0  0  0  0  0  0  0
   -6.2260    6.5240    7.8670 N   0  0  0  0  0  0  0  0  0  0  0  0
   -7.1930    6.7500    8.7820 C   0  0  0  0  0  0  0  0  0  0  0  0
   -8.4240    6.1170    8.7580 C   0  0  0  0  0  0  0  0  0  0  0  0
   -9.3950    6.3570    9.7450 N   0  0  0  0  0  0  0  0  0  0  0  0
  -10.5620    5.6840    9.7600 C   0  0  0  0  0  0  0  0  0  0  0  0
  -11.5770    5.6820   10.5960 N   0  0  0  0  0  0  0  0  0  0  0  0
  -12.4690    4.7490   10.1080 N   0  0  0  0  0  0  0  0  0  0  0  0
  -12.0160    4.1880    8.9920 N   0  0  0  0  0  0  0  0  0  0  0  0
  -10.8400    4.7900    8.7610 N   0  0  0  0  0  0  0  0  0  0  0  0
   -9.9950    4.4790    7.6090 C   0  0  0  0  0  0  0  0  0  0  0  0
   -8.6630    5.2070    7.7200 C   0  0  0  0  0  0  0  0  0  0  0  0
  -10.7490    4.8610    6.3730 C   0  0  0  0  0  0  0  0  0  0  0  0
  -11.0350    6.2020    6.1170 C   0  0  0  0  0  0  0  0  0  0  0  0
  -11.7370    6.5580    4.9650 C   0  0  0  0  0  0  0  0  0  0  0  0
  -12.1550    5.5730    4.0710 C   0  0  0  0  0  0  0  0  0  0  0  0
  -11.8700    4.2310    4.3270 C   0  0  0  0  0  0  0  0  0  0  0  0
  -11.1660    3.8760    5.4790 C   0  0  0  0  0  0  0  0  0  0  0  0
  -12.0160    7.8660    4.7150 O   0  0  0  0  0  0  0  0  0  0  0  0
   -6.8990    7.6510    9.7710 O   0  0  0  0  0  0  0  0  0  0  0  0
   -8.7282    4.2071    4.6506 C   0  0  0  0  0  0  0  0  0  0  0  0
   -9.5948    5.4307    4.5971 C   0  0  0  0  0  0  0  0  0  0  0  0
   -8.8655    3.3018    3.6856 O   0  0  0  0  0  0  0  0  0  0  0  0
   -8.1414    2.1903    3.6235 C   0  0  0  0  0  0  0  0  0  0  0  0
   -8.3473    1.2906    2.5717 C   0  0  0  0  0  0  0  0  0  0  0  0
   -7.5833    0.1124    2.4833 C   0  0  0  0  0  0  0  0  0  0  0  0
   -7.7644   -0.8221    1.4528 O   0  0  0  0  0  0  0  0  0  0  0  0
   -8.1943   -0.5237    0.1517 C   0  0  0  0  0  0  0  0  0  0  0  0
   -8.1446    0.6608   -0.2806 O   0  0  0  0  0  0  0  0  0  0  0  0
   -8.6522   -1.6153   -0.7360 C   0  0  0  0  0  0  0  0  0  0  0  0
   -9.0638   -1.3451   -2.0547 C   0  0  0  0  0  0  0  0  0  0  0  0
   -9.4970   -2.3814   -2.8875 C   0  0  0  0  0  0  0  0  0  0  0  0
   -9.5248   -3.6967   -2.4149 C   0  0  0  0  0  0  0  0  0  0  0  0
  -10.0687   -4.9949   -3.4617 Cl  0  0  0  0  0  0  0  0  0  0  0  0
   -9.1190   -3.9756   -1.1067 C   0  0  0  0  0  0  0  0  0  0  0  0
   -8.6851   -2.9424   -0.2704 C   0  0  0  0  0  0  0  0  0  0  0  0
   -6.6366   -0.1664    3.4753 C   0  0  0  0  0  0  0  0  0  0  0  0
   -6.4237    0.7268    4.5288 C   0  0  0  0  0  0  0  0  0  0  0  0
   -7.1718    1.9144    4.6099 C   0  0  0  0  0  0  0  0  0  0  0  0
   -6.9983    2.8388    5.6525 C   0  0  0  0  0  0  0  0  0  0  0  0
   -6.1486    2.6233    6.5614 O   0  0  0  0  0  0  0  0  0  0  0  0
  1  3  4  0
  1 14  4  0
  1  2  1  0
  3  4  4  0
  4  5  4  0
  5  6  4  0
  5 22  1  0
  6  7  1  0
  6 14  4  0
  7  8  1  0
  8  9  4  0
  8 12  4  0
  9 10  4  0
 10 11  4  0
 11 12  4  0
 12 13  1  0
 13 14  1  0
 13 15  1  6
 15 16  4  0
 15 20  4  0
 16 17  4  0
 17 18  4  0
 17 21  1  0
 18 19  4  0
 19 20  4  0
 23 24  1  0
 23 25  4  0
 25 26  4  0
 26 27  4  0
 27 28  4  0
 28 29  1  0
 29 30  1  0
 30 31  2  0
 30 32  1  0
 32 33  4  0
 33 34  4  0
 34 35  4  0
 35 36  1  0
 35 37  4  0
 37 38  4  0
 28 39  4  0
 39 40  4  0
 40 41  4  0
 41 42  4  0
 42 43  2  0
 41 26  4  0
 38 32  4  0
  2 23  4  0
  2 42  4  0
M  END
$$$$

     RDKit          3D

 43 49  0  0  0  0  0  0  0  0999 V2000
   -7.6410    4.9930    6.8080 C   0  0  0  0  0  0  0  0  0  1  0  0
   -7.7310    4.0530    5.7140 C   0  0  0  0  0  0  0  0  0  2  0  0
   -6.4520    5.6300    6.8680 N   0  0  0  0  0  0  0  0  0  0  0  0
   -6.2260    6.5240    7.8670 N   0  0  0  0  0  0  0  0  0  0  0  0
   -7.1930    6.7500    8.7820 C   0  0  0  0  0  0  0  0  0  0  0  0
   -8.4240    6.1170    8.7580 C   0  0  0  0  0  0  0  0  0  0  0  0
   -9.3950    6.3570    9.7450 N   0  0  0  0  0  0  0  0  0  0  0  0
  -10.5620    5.6840    9.7600 C   0  0  0  0  0  0  0  0  0  0  0  0
  -11.5770    5.6820   10.5960 N   0  0  0  0  0  0  0  0  0  0  0  0
  -12.4690    4.7490   10.1080 N   0  0  0  0  0  0  0  0  0  0  0  0
  -12.0160    4.1880    8.9920 N   0  0  0  0  0  0  0  0  0  0  0  0
  -10.8400    4.7900    8.7610 N   0  0  0  0  0  0  0  0  0  0  0  0
   -9.9950    4.4790    7.6090 C   0  0  0  0  0  0  0  0  0  0  0  0
   -8.6630    5.2070    7.7200 C   0  0  0  0  0  0  0  0  0  0  0  0
  -10.7490    4.8610    6.3730 C   0  0  0  0  0  0  0  0  0  0  0  0
  -11.0350    6.2020    6.1170 C   0  0  0  0  0  0  0  0  0  0  0  0
  -11.7370    6.5580    4.9650 C   0  0  0  0  0  0  0  0  0  0  0  0
  -12.1550    5.5730    4.0710 C   0  0  0  0  0  0  0  0  0  0  0  0
  -11.8700    4.2310    4.3270 C   0  0  0  0  0  0  0  0  0  0  0  0
  -11.1660    3.8760    5.4790 C   0  0  0  0  0  0  0  0  0  0  0  0
  -12.0160    7.8660    4.7150 O   0  0  0  0  0  0  0  0  0  0  0  0
   -6.8990    7.6510    9.7710 O   0  0  0  0  0  0  0  0  0  0  0  0
   -8.7276    4.2074    4.6501 C   0  0  0  0  0  0  0  0  0  0  0  0
   -9.5934    5.4318    4.5960 C   0  0  0  0  0  0  0  0  0  0  0  0
   -8.8654    3.3020    3.6853 O   0  0  0  0  0  0  0  0  0  0  0  0
   -8.1430    2.1894    3.6248 C   0  0  0  0  0  0  0  0  0  0  0  0
   -8.3489    1.2889    2.5744 C   0  0  0  0  0  0  0  0  0  0  0  0
   -7.6070    0.1049    2.4942 C   0  0  0  0  0  0  0  0  0  0  0  0
   -7.8456   -0.7594    1.4153 O   0  0  0  0  0  0  0  0  0  0  0  0
   -7.6587   -2.1492    1.4304 C   0  0  0  0  0  0  0  0  0  0  0  0
   -7.5616   -2.7680    2.5259 O   0  0  0  0  0  0  0  0  0  0  0  0
   -7.6350   -2.8982    0.1545 C   0  0  0  0  0  0  0  0  0  0  0  0
   -7.4758   -4.2967    0.1444 C   0  0  0  0  0  0  0  0  0  0  0  0
   -7.4530   -4.9978   -1.0653 C   0  0  0  0  0  0  0  0  0  0  0  0
   -7.5878   -4.3129   -2.2762 C   0  0  0  0  0  0  0  0  0  0  0  0
   -7.5587   -5.1949   -3.7923 Cl  0  0  0  0  0  0  0  0  0  0  0  0
   -7.7456   -2.9241   -2.2773 C   0  0  0  0  0  0  0  0  0  0  0  0
   -7.7690   -2.2189   -1.0700 C   0  0  0  0  0  0  0  0  0  0  0  0
   -6.6242   -0.1593    3.4656 C   0  0  0  0  0  0  0  0  0  0  0  0
   -6.4116    0.7353    4.5185 C   0  0  0  0  0  0  0  0  0  0  0  0
   -7.1716    1.9146    4.6095 C   0  0  0  0  0  0  0  0  0  0  0  0
   -6.9975    2.8393    5.6517 C   0  0  0  0  0  0  0  0  0  0  0  0
   -6.1458    2.6249    6.5592 O   0  0  0  0  0  0  0  0  0  0  0  0
  1  3  4  0
  1 14  4  0
  1  2  1  0
  3  4  4  0
  4  5  4  0
  5  6  4  0
  5 22  1  0
  6  7  1  0
  6 14  4  0
  7  8  1  0
  8  9  4  0
  8 12  4  0
  9 10  4  0
 10 11  4  0
 11 12  4  0
 12 13  1  0
 13 14  1  0
 13 15  1  6
 15 16  4  0
 15 20  4  0
 16 17  4  0
 17 18  4  0
 17 21  1  0
 18 19  4  0
 19 20  4  0
 23 24  1  0
 23 25  4  0
 25 26  4  0
 26 27  4  0
 27 28  4  0
 28 29  1  0
 29 30  1  0
 30 31  2  0
 30 32  1  0
 32 33  4  0
 33 34  4  0
 34 35  4  0
 35 36  1  0
 35 37  4  0
 37 38  4  0
 28 39  4  0
 39 40  4  0
 40 41  4  0
 41 42  4  0
 42 43  2  0
 41 26  4  0
 38 32  4  0
  2 23  4  0
  2 42  4  0
M  END
$$$$

     RDKit          3D

 41 46  0  0  0  0  0  0  0  0999 V2000
   -7.6410    4.9930    6.8080 C   0  0  0  0  0  0  0  0  0  1  0  0
   -7.7310    4.0530    5.7140 C   0  0  0  0  0  0  0  0  0  2  0  0
   -6.4520    5.6300    6.8680 N   0  0  0  0  0  0  0  0  0  0  0  0
   -6.2260    6.5240    7.8670 N   0  0  0  0  0  0  0  0  0  0  0  0
   -7.1930    6.7500    8.7820 C   0  0  0  0  0  0  0  0  0  0  0  0
   -8.4240    6.1170    8.7580 C   0  0  0  0  0  0  0  0  0  0  0  0
   -9.3950    6.3570    9.7450 N   0  0  0  0  0  0  0  0  0  0  0  0
  -10.5620    5.6840    9.7600 C   0  0  0  0  0  0  0  0  0  0  0  0
  -11.5770    5.6820   10.5960 N   0  0  0  0  0  0  0  0  0  0  0  0
  -12.4690    4.7490   10.1080 N   0  0  0  0  0  0  0  0  0  0  0  0
  -12.0160    4.1880    8.9920 N   0  0  0  0  0  0  0  0  0  0  0  0
  -10.8400    4.7900    8.7610 N   0  0  0  0  0  0  0  0  0  0  0  0
   -9.9950    4.4790    7.6090 C   0  0  0  0  0  0  0  0  0  0  0  0
   -8.6630    5.2070    7.7200 C   0  0  0  0  0  0  0  0  0  0  0  0
  -10.7490    4.8610    6.3730 C   0  0  0  0  0  0  0  0  0  0  0  0
  -11.0350    6.2020    6.1170 C   0  0  0  0  0  0  0  0  0  0  0  0
  -11.7370    6.5580    4.9650 C   0  0  0  0  0  0  0  0  0  0  0  0
  -12.1550    5.5730    4.0710 C   0  0  0  0  0  0  0  0  0  0  0  0
  -11.8700    4.2310    4.3270 C   0  0  0  0  0  0  0  0  0  0  0  0
  -11.1660    3.8760    5.4790 C   0  0  0  0  0  0  0  0  0  0  0  0
  -12.0160    7.8660    4.7150 O   0  0  0  0  0  0  0  0  0  0  0  0
   -6.8990    7.6510    9.7710 O   0  0  0  0  0  0  0  0  0  0  0  0
   -6.7860    3.2086    5.2510 N   0  0  0  0  0  0  0  0  0  0  0  0
   -7.2722    2.4774    4.2561 N   0  0  0  0  0  0  0  0  0  0  0  0
   -8.5596    2.8384    4.0961 C   0  0  0  0  0  0  0  0  0  0  0  0
   -9.6254    2.1869    2.8094 S   0  0  0  0  0  0  0  0  0  0  0  0
  -10.2317    0.7608    3.7859 C   0  0  0  0  0  0  0  0  0  0  0  0
  -11.7580    0.7729    3.8117 C   0  0  0  0  0  0  0  0  0  0  0  0
   -9.7186   -0.5134    3.1717 C   0  0  0  0  0  0  0  0  0  0  0  0
  -10.0335   -0.8022    1.9848 O   0  0  0  0  0  0  0  0  0  0  0  0
   -8.8880   -1.4013    3.9364 N   0  0  0  0  0  0  0  0  0  0  0  0
   -8.2548   -2.5688    3.3881 C   0  0  0  0  0  0  0  0  0  0  0  0
   -8.2702   -2.7796    2.1443 O   0  0  0  0  0  0  0  0  0  0  0  0
   -7.5955   -3.4963    4.2611 N   0  0  0  0  0  0  0  0  0  0  0  0
   -6.9738   -4.7245    3.7558 C   0  0  0  0  0  0  0  0  0  0  0  0
   -8.0196   -5.7431    3.3205 C   0  0  0  0  0  0  0  0  0  0  0  0
   -7.3701   -7.1117    3.5049 C   0  0  0  0  0  0  0  0  0  0  0  0
   -6.1383   -6.9012    4.3851 C   0  0  0  0  0  0  0  0  0  0  0  0
   -6.1649   -5.4443    4.8252 C   0  0  0  0  0  0  0  0  0  0  0  0
   -8.9101    3.7899    4.9764 N   0  0  0  0  0  0  0  0  0  0  0  0
  -10.1073    4.5240    4.9898 N   0  0  0  0  0  0  0  0  0  0  0  0
  1  3  4  0
  1 14  4  0
  1  2  1  0
  3  4  4  0
  4  5  4  0
  5  6  4  0
  5 22  1  0
  6  7  1  0
  6 14  4  0
  7  8  1  0
  8  9  4  0
  8 12  4  0
  9 10  4  0
 10 11  4  0
 11 12  4  0
 12 13  1  0
 13 14  1  0
 13 15  1  6
 15 16  4  0
 15 20  4  0
 16 17  4  0
 17 18  4  0
 17 21  1  0
 18 19  4  0
 19 20  4  0
 23 24  4  0
 24 25  4  0
 25 26  1  0
 26 27  1  0
 27 28  1  0
 27 29  1  0
 29 30  2  0
 29 31  1  0
 31 32  1  0
 32 33  2  0
 32 34  1  0
 34 35  1  0
 35 36  1  0
 36 37  1  0
 37 38  1  0
 38 39  1  0
 25 40  4  0
 40 41  1  0
 39 35  1  0
  2 23  4  0
  2 40  4  0
M  END
$$$$

     RDKit          3D

 41 46  0  0  0  0  0  0  0  0999 V2000
   -7.6410    4.9930    6.8080 C   0  0  0  0  0  0  0  0  0  1  0  0
   -7.7310    4.0530    5.7140 C   0  0  0  0  0  0  0  0  0  2  0  0
   -6.4520    5.6300    6.8680 N   0  0  0  0  0  0  0  0  0  0  0  0
   -6.2260    6.5240    7.8670 N   0  0  0  0  0  0  0  0  0  0  0  0
   -7.1930    6.7500    8.7820 C   0  0  0  0  0  0  0  0  0  0  0  0
   -8.4240    6.1170    8.7580 C   0  0  0  0  0  0  0  0  0  0  0  0
   -9.3950    6.3570    9.7450 N   0  0  0  0  0  0  0  0  0  0  0  0
  -10.5620    5.6840    9.7600 C   0  0  0  0  0  0  0  0  0  0  0  0
  -11.5770    5.6820   10.5960 N   0  0  0  0  0  0  0  0  0  0  0  0
  -12.4690    4.7490   10.1080 N   0  0  0  0  0  0  0  0  0  0  0  0
  -12.0160    4.1880    8.9920 N   0  0  0  0  0  0  0  0  0  0  0  0
  -10.8400    4.7900    8.7610 N   0  0  0  0  0  0  0  0  0  0  0  0
   -9.9950    4.4790    7.6090 C   0  0  0  0  0  0  0  0  0  0  0  0
   -8.6630    5.2070    7.7200 C   0  0  0  0  0  0  0  0  0  0  0  0
  -10.7490    4.8610    6.3730 C   0  0  0  0  0  0  0  0  0  0  0  0
  -11.0350    6.2020    6.1170 C   0  0  0  0  0  0  0  0  0  0  0  0
  -11.7370    6.5580    4.9650 C   0  0  0  0  0  0  0  0  0  0  0  0
  -12.1550    5.5730    4.0710 C   0  0  0  0  0  0  0  0  0  0  0  0
  -11.8700    4.2310    4.3270 C   0  0  0  0  0  0  0  0  0  0  0  0
  -11.1660    3.8760    5.4790 C   0  0  0  0  0  0  0  0  0  0  0  0
  -12.0160    7.8660    4.7150 O   0  0  0  0  0  0  0  0  0  0  0  0
   -6.8990    7.6510    9.7710 O   0  0  0  0  0  0  0  0  0  0  0  0
   -6.7942    3.1843    5.2801 N   0  0  0  0  0  0  0  0  0  0  0  0
   -7.2853    2.4308    4.3048 N   0  0  0  0  0  0  0  0  0  0  0  0
   -8.5645    2.8094    4.1210 C   0  0  0  0  0  0  0  0  0  0  0  0
   -9.6513    2.0801    2.8897 S   0  0  0  0  0  0  0  0  0  0  0  0
   -9.1306    3.1231    1.4685 C   0  0  0  0  0  0  0  0  0  0  0  0
   -9.6363    4.5605    1.6381 C   0  0  0  0  0  0  0  0  0  0  0  0
   -7.6327    3.0494    1.2357 C   0  0  0  0  0  0  0  0  0  0  0  0
   -6.9361    4.0984    1.3108 O   0  0  0  0  0  0  0  0  0  0  0  0
   -6.9638    1.8017    0.9896 N   0  0  0  0  0  0  0  0  0  0  0  0
   -7.6348    0.5771    0.6671 C   0  0  0  0  0  0  0  0  0  0  0  0
   -7.3493   -0.4657    1.3137 O   0  0  0  0  0  0  0  0  0  0  0  0
   -8.5913    0.5015   -0.3984 N   0  0  0  0  0  0  0  0  0  0  0  0
   -8.4919    1.3349   -1.6023 C   0  0  0  0  0  0  0  0  0  0  0  0
   -9.8619    1.4984   -2.2512 C   0  0  0  0  0  0  0  0  0  0  0  0
  -10.0001    0.3578   -3.2551 C   0  0  0  0  0  0  0  0  0  0  0  0
   -8.6046   -0.2299   -3.4567 C   0  0  0  0  0  0  0  0  0  0  0  0
   -7.6437    0.6387   -2.6560 C   0  0  0  0  0  0  0  0  0  0  0  0
   -8.9087    3.7848    4.9790 N   0  0  0  0  0  0  0  0  0  0  0  0
  -10.1204    4.4941    5.0169 N   0  0  0  0  0  0  0  0  0  0  0  0
  1  3  4  0
  1 14  4  0
  1  2  1  0
  3  4  4  0
  4  5  4  0
  5  6  4  0
  5 22  1  0
  6  7  1  0
  6 14  4  0
  7  8  1  0
  8  9  4  0
  8 12  4  0
  9 10  4  0
 10 11  4  0
 11 12  4  0
 12 13  1  0
 13 14  1  0
 13 15  1  6
 15 16  4  0
 15 20  4  0
 16 17  4  0
 17 18  4  0
 17 21  1  0
 18 19  4  0
 19 20  4  0
 23 24  4  0
 24 25  4  0
 25 26  1  0
 26 27  1  0
 27 28  1  0
 27 29  1  0
 29 30  2  0
 29 31  1  0
 31 32  1  0
 32 33  2  0
 32 34  1  0
 34 35  1  0
 35 36  1  0
 36 37  1  0
 37 38  1  0
 38 39  1  0
 25 40  4  0
 40 41  1  0
 39 35  1  0
  2 23  4  0
  2 40  4  0
M  END
$$$$

     RDKit          3D

 31 36  0  0  0  0  0  0  0  0999 V2000
   -7.6410    4.9930    6.8080 C   0  0  0  0  0  0  0  0  0  1  0  0
   -7.7310    4.0530    5.7140 C   0  0  0  0  0  0  0  0  0  2  0  0
   -6.4520    5.6300    6.8680 N   0  0  0  0  0  0  0  0  0  0  0  0
   -6.2260    6.5240    7.8670 N   0  0  0  0  0  0  0  0  0  0  0  0
   -7.1930    6.7500    8.7820 C   0  0  0  0  0  0  0  0  0  0  0  0
   -8.4240    6.1170    8.7580 C   0  0  0  0  0  0  0  0  0  0  0  0
   -9.3950    6.3570    9.7450 N   0  0  0  0  0  0  0  0  0  0  0  0
  -10.5620    5.6840    9.7600 C   0  0  0  0  0  0  0  0  0  0  0  0
  -11.5770    5.6820   10.5960 N   0  0  0  0  0  0  0  0  0  0  0  0
  -12.4690    4.7490   10.1080 N   0  0  0  0  0  0  0  0  0  0  0  0
  -12.0160    4.1880    8.9920 N   0  0  0  0  0  0  0  0  0  0  0  0
  -10.8400    4.7900    8.7610 N   0  0  0  0  0  0  0  0  0  0  0  0
   -9.9950    4.4790    7.6090 C   0  0  0  0  0  0  0  0  0  0  0  0
   -8.6630    5.2070    7.7200 C   0  0  0  0  0  0  0  0  0  0  0  0
  -10.7490    4.8610    6.3730 C   0  0  0  0  0  0  0  0  0  0  0  0
  -11.0350    6.2020    6.1170 C   0  0  0  0  0  0  0  0  0  0  0  0
  -11.7370    6.5580    4.9650 C   0  0  0  0  0  0  0  0  0  0  0  0
  -12.1550    5.5730    4.0710 C   0  0  0  0  0  0  0  0  0  0  0  0
  -11.8700    4.2310    4.3270 C   0  0  0  0  0  0  0  0  0  0  0  0
  -11.1660    3.8760    5.4790 C   0  0  0  0  0  0  0  0  0  0  0  0
  -12.0160    7.8660    4.7150 O   0  0  0  0  0  0  0  0  0  0  0  0
   -6.8990    7.6510    9.7710 O   0  0  0  0  0  0  0  0  0  0  0  0
   -6.8022    3.1390    5.3352 N   0  0  0  0  0  0  0  0  0  0  0  0
   -7.3305    2.4144    4.3233 C   0  0  0  0  0  0  0  0  0  0  0  0
   -6.3980    1.0256    3.4036 Br  0  0  0  0  0  0  0  0  0  0  0  0
   -8.6089    2.8575    4.0748 C   0  0  0  0  0  0  0  0  0  0  0  0
   -9.5278    2.4396    3.1128 C   0  0  0  0  0  0  0  0  0  0  0  0
  -10.7580    3.1125    3.0562 C   0  0  0  0  0  0  0  0  0  0  0  0
  -11.0262    4.1768    3.9376 C   0  0  0  0  0  0  0  0  0  0  0  0
  -10.0597    4.5538    4.8820 C   0  0  0  0  0  0  0  0  0  0  0  0
   -8.8909    3.8566    4.9243 N   0  0  0  0  0  0  0  0  0  0  0  0
  1  3  4  0
  1 14  4  0
  1  2  1  0
  3  4  4  0
  4  5  4  0
  5  6  4  0
  5 22  1  0
  6  7  1  0
  6 14  4  0
  7  8  1  0
  8  9  4  0
  8 12  4  0
  9 10  4  0
 10 11  4  0
 11 12  4  0
 12 13  1  0
 13 14  1  0
 13 15  1  6
 15 16  4  0
 15 20  4  0
 16 17  4  0
 17 18  4  0
 17 21  1  0
 18 19  4  0
 19 20  4  0
 23 24  4  0
 24 25  1  0
 24 26  4  0
 26 27  4  0
 27 28  4  0
 28 29  4  0
 29 30  4  0
 30 31  4  0
 31 26  4  0
  2 23  4  0
  2 31  4  0
M  END
$$$$

     RDKit          3D

 34 39  0  0  0  0  0  0  0  0999 V2000
   -7.6410    4.9930    6.8080 C   0  0  0  0  0  0  0  0  0  1  0  0
   -7.7310    4.0530    5.7140 C   0  0  0  0  0  0  0  0  0  2  0  0
   -6.4520    5.6300    6.8680 N   0  0  0  0  0  0  0  0  0  0  0  0
   -6.2260    6.5240    7.8670 N   0  0  0  0  0  0  0  0  0  0  0  0
   -7.1930    6.7500    8.7820 C   0  0  0  0  0  0  0  0  0  0  0  0
   -8.4240    6.1170    8.7580 C   0  0  0  0  0  0  0  0  0  0  0  0
   -9.3950    6.3570    9.7450 N   0  0  0  0  0  0  0  0  0  0  0  0
  -10.5620    5.6840    9.7600 C   0  0  0  0  0  0  0  0  0  0  0  0
  -11.5770    5.6820   10.5960 N   0  0  0  0  0  0  0  0  0  0  0  0
  -12.4690    4.7490   10.1080 N   0  0  0  0  0  0  0  0  0  0  0  0
  -12.0160    4.1880    8.9920 N   0  0  0  0  0  0  0  0  0  0  0  0
  -10.8400    4.7900    8.7610 N   0  0  0  0  0  0  0  0  0  0  0  0
   -9.9950    4.4790    7.6090 C   0  0  0  0  0  0  0  0  0  0  0  0
   -8.6630    5.2070    7.7200 C   0  0  0  0  0  0  0  0  0  0  0  0
  -10.7490    4.8610    6.3730 C   0  0  0  0  0  0  0  0  0  0  0  0
  -11.0350    6.2020    6.1170 C   0  0  0  0  0  0  0  0  0  0  0  0
  -11.7370    6.5580    4.9650 C   0  0  0  0  0  0  0  0  0  0  0  0
  -12.1550    5.5730    4.0710 C   0  0  0  0  0  0  0  0  0  0  0  0
  -11.8700    4.2310    4.3270 C   0  0  0  0  0  0  0  0  0  0  0  0
  -11.1660    3.8760    5.4790 C   0  0  0  0  0  0  0  0  0  0  0  0
  -12.0160    7.8660    4.7150 O   0  0  0  0  0  0  0  0  0  0  0  0
   -6.8990    7.6510    9.7710 O   0  0  0  0  0  0  0  0  0  0  0  0
   -6.8325    3.0923    5.3869 N   0  0  0  0  0  0  0  0  0  0  0  0
   -7.3665    2.4057    4.3589 C   0  0  0  0  0  0  0  0  0  0  0  0
   -6.7529    1.3461    3.6944 C   0  0  0  0  0  0  0  0  0  0  0  0
   -7.4437    0.7473    2.6241 C   0  0  0  0  0  0  0  0  0  0  0  0
   -6.8451   -0.4229    1.9026 C   0  0  0  0  0  0  0  0  0  0  0  0
   -8.7306    1.2112    2.2770 C   0  0  0  0  0  0  0  0  0  0  0  0
   -9.2979    2.2826    2.9807 C   0  0  0  0  0  0  0  0  0  0  0  0
   -8.5878    2.8411    3.9989 N   0  0  0  0  0  0  0  0  0  0  0  0
   -8.8756    3.8661    4.8294 C   0  0  0  0  0  0  0  0  0  0  0  0
  -10.0691    4.7907    4.7188 C   0  0  0  0  0  0  0  0  0  0  0  0
  -10.0314    5.6003    3.4234 C   0  0  0  0  0  0  0  0  0  0  0  0
  -11.5948    3.8757    4.8556 Cl  0  0  0  0  0  0  0  0  0  0  0  0
  1  3  4  0
  1 14  4  0
  1  2  1  0
  3  4  4  0
  4  5  4  0
  5  6  4  0
  5 22  1  0
  6  7  1  0
  6 14  4  0
  7  8  1  0
  8  9  4  0
  8 12  4  0
  9 10  4  0
 10 11  4  0
 11 12  4  0
 12 13  1  0
 13 14  1  0
 13 15  1  6
 15 16  4  0
 15 20  4  0
 16 17  4  0
 17 18  4  0
 17 21  1  0
 18 19  4  0
 19 20  4  0
 23 24  4  0
 24 25  4  0
 25 26  4  0
 26 27  1  0
 26 28  4  0
 28 29  4  0
 29 30  4  0
 30 31  4  0
 31 32  1  0
 32 33  1  0
 32 34  1  0
 30 24  4  0
  2 23  4  0
  2 31  4  0
M  END
$$$$

     RDKit          3D

 34 39  0  0  0  0  0  0  0  0999 V2000
   -7.6410    4.9930    6.8080 C   0  0  0  0  0  0  0  0  0  1  0  0
   -7.7310    4.0530    5.7140 C   0  0  0  0  0  0  0  0  0  2  0  0
   -6.4520    5.6300    6.8680 N   0  0  0  0  0  0  0  0  0  0  0  0
   -6.2260    6.5240    7.8670 N   0  0  0  0  0  0  0  0  0  0  0  0
   -7.1930    6.7500    8.7820 C   0  0  0  0  0  0  0  0  0  0  0  0
   -8.4240    6.1170    8.7580 C   0  0  0  0  0  0  0  0  0  0  0  0
   -9.3950    6.3570    9.7450 N   0  0  0  0  0  0  0  0  0  0  0  0
  -10.5620    5.6840    9.7600 C   0  0  0  0  0  0  0  0  0  0  0  0
  -11.5770    5.6820   10.5960 N   0  0  0  0  0  0  0  0  0  0  0  0
  -12.4690    4.7490   10.1080 N   0  0  0  0  0  0  0  0  0  0  0  0
  -12.0160    4.1880    8.9920 N   0  0  0  0  0  0  0  0  0  0  0  0
  -10.8400    4.7900    8.7610 N   0  0  0  0  0  0  0  0  0  0  0  0
   -9.9950    4.4790    7.6090 C   0  0  0  0  0  0  0  0  0  0  0  0
   -8.6630    5.2070    7.7200 C   0  0  0  0  0  0  0  0  0  0  0  0
  -10.7490    4.8610    6.3730 C   0  0  0  0  0  0  0  0  0  0  0  0
  -11.0350    6.2020    6.1170 C   0  0  0  0  0  0  0  0  0  0  0  0
  -11.7370    6.5580    4.9650 C   0  0  0  0  0  0  0  0  0  0  0  0
  -12.1550    5.5730    4.0710 C   0  0  0  0  0  0  0  0  0  0  0  0
  -11.8700    4.2310    4.3270 C   0  0  0  0  0  0  0  0  0  0  0  0
  -11.1660    3.8760    5.4790 C   0  0  0  0  0  0  0  0  0  0  0  0
  -12.0160    7.8660    4.7150 O   0  0  0  0  0  0  0  0  0  0  0  0
   -6.8990    7.6510    9.7710 O   0  0  0  0  0  0  0  0  0  0  0  0
   -7.0606    2.8653    5.6360 N   0  0  0  0  0  0  0  0  0  0  0  0
   -7.5082    2.2631    4.5178 C   0  0  0  0  0  0  0  0  0  0  0  0
   -7.0710    1.0320    4.0341 C   0  0  0  0  0  0  0  0  0  0  0  0
   -7.6639    0.5356    2.8573 C   0  0  0  0  0  0  0  0  0  0  0  0
   -7.2020   -0.7659    2.2733 C   0  0  0  0  0  0  0  0  0  0  0  0
   -8.6511    1.2986    2.1961 C   0  0  0  0  0  0  0  0  0  0  0  0
   -9.0504    2.5320    2.7295 C   0  0  0  0  0  0  0  0  0  0  0  0
   -8.4562    2.9663    3.8738 N   0  0  0  0  0  0  0  0  0  0  0  0
   -8.6388    4.0952    4.5878 C   0  0  0  0  0  0  0  0  0  0  0  0
   -9.6095    5.1973    4.2113 C   0  0  0  0  0  0  0  0  0  0  0  0
  -10.9975    4.9308    4.7861 C   0  0  0  0  0  0  0  0  0  0  0  0
   -9.0367    6.8218    4.6882 Cl  0  0  0  0  0  0  0  0  0  0  0  0
  1  3  4  0
  1 14  4  0
  1  2  1  0
  3  4  4  0
  4  5  4  0
  5  6  4  0
  5 22  1  0
  6  7  1  0
  6 14  4  0
  7  8  1  0
  8  9  4  0
  8 12  4  0
  9 10  4  0
 10 11  4  0
 11 12  4  0
 12 13  1  0
 13 14  1  0
 13 15  1  6
 15 16  4  0
 15 20  4  0
 16 17  4  0
 17 18  4  0
 17 21  1  0
 18 19  4  0
 19 20  4  0
 23 24  4  0
 24 25  4  0
 25 26  4  0
 26 27  1  0
 26 28  4  0
 28 29  4  0
 29 30  4  0
 30 31  4  0
 31 32  1  0
 32 33  1  0
 32 34  1  0
 30 24  4  0
  2 23  4  0
  2 31  4  0
M  END
$$$$

     RDKit          3D

 32 36  0  0  0  0  0  0  0  0999 V2000
   -7.6410    4.9930    6.8080 C   0  0  0  0  0  0  0  0  0  1  0  0
   -7.7310    4.0530    5.7140 C   0  0  0  0  0  0  0  0  0  2  0  0
   -6.4520    5.6300    6.8680 N   0  0  0  0  0  0  0  0  0  0  0  0
   -6.2260    6.5240    7.8670 N   0  0  0  0  0  0  0  0  0  0  0  0
   -7.1930    6.7500    8.7820 C   0  0  0  0  0  0  0  0  0  0  0  0
   -8.4240    6.1170    8.7580 C   0  0  0  0  0  0  0  0  0  0  0  0
   -9.3950    6.3570    9.7450 N   0  0  0  0  0  0  0  0  0  0  0  0
  -10.5620    5.6840    9.7600 C   0  0  0  0  0  0  0  0  0  0  0  0
  -11.5770    5.6820   10.5960 N   0  0  0  0  0  0  0  0  0  0  0  0
  -12.4690    4.7490   10.1080 N   0  0  0  0  0  0  0  0  0  0  0  0
  -12.0160    4.1880    8.9920 N   0  0  0  0  0  0  0  0  0  0  0  0
  -10.8400    4.7900    8.7610 N   0  0  0  0  0  0  0  0  0  0  0  0
   -9.9950    4.4790    7.6090 C   0  0  0  0  0  0  0  0  0  0  0  0
   -8.6630    5.2070    7.7200 C   0  0  0  0  0  0  0  0  0  0  0  0
  -10.7490    4.8610    6.3730 C   0  0  0  0  0  0  0  0  0  0  0  0
  -11.0350    6.2020    6.1170 C   0  0  0  0  0  0  0  0  0  0  0  0
  -11.7370    6.5580    4.9650 C   0  0  0  0  0  0  0  0  0  0  0  0
  -12.1550    5.5730    4.0710 C   0  0  0  0  0  0  0  0  0  0  0  0
  -11.8700    4.2310    4.3270 C   0  0  0  0  0  0  0  0  0  0  0  0
  -11.1660    3.8760    5.4790 C   0  0  0  0  0  0  0  0  0  0  0  0
  -12.0160    7.8660    4.7150 O   0  0  0  0  0  0  0  0  0  0  0  0
   -6.8990    7.6510    9.7710 O   0  0  0  0  0  0  0  0  0  0  0  0
   -6.8781    2.9392    5.5433 C   0  0  0  0  0  0  0  0  0  0  0  0
   -7.0174    2.0055    4.5066 C   0  0  0  0  0  0  0  0  0  0  0  0
   -6.0474    0.8978    4.3965 C   0  0  0  0  0  0  0  0  0  0  0  0
   -5.3513    0.6101    3.2874 C   0  0  0  0  0  0  0  0  0  0  0  0
   -5.4277    1.4114    2.0189 C   0  0  0  0  0  0  0  0  0  0  0  0
   -4.3850    1.0349    1.1642 O   0  0  0  0  0  0  0  0  0  0  0  0
   -8.1145    2.0997    3.6373 C   0  0  0  0  0  0  0  0  0  0  0  0
   -9.0330    3.1428    3.7737 C   0  0  0  0  0  0  0  0  0  0  0  0
   -8.8748    4.0997    4.7854 C   0  0  0  0  0  0  0  0  0  0  0  0
   -9.7841    5.1527    4.8937 O   0  0  0  0  0  0  0  0  0  0  0  0
  1  3  4  0
  1 14  4  0
  1  2  1  0
  3  4  4  0
  4  5  4  0
  5  6  4  0
  5 22  1  0
  6  7  1  0
  6 14  4  0
  7  8  1  0
  8  9  4  0
  8 12  4  0
  9 10  4  0
 10 11  4  0
 11 12  4  0
 12 13  1  0
 13 14  1  0
 13 15  1  6
 15 16  4  0
 15 20  4  0
 16 17  4  0
 17 18  4  0
 17 21  1  0
 18 19  4  0
 19 20  4  0
 23 24  4  0
 24 25  1  0
 25 26  2  3
 26 27  1  0
 27 28  1  0
 24 29  4  0
 29 30  4  0
 30 31  4  0
 31 32  1  0
  2 23  4  0
  2 31  4  0
M  END
$$$$

     RDKit          3D

 44 50  0  0  0  0  0  0  0  0999 V2000
   -7.6410    4.9930    6.8080 C   0  0  0  0  0  0  0  0  0  1  0  0
   -7.7310    4.0530    5.7140 C   0  0  0  0  0  0  0  0  0  2  0  0
   -6.4520    5.6300    6.8680 N   0  0  0  0  0  0  0  0  0  0  0  0
   -6.2260    6.5240    7.8670 N   0  0  0  0  0  0  0  0  0  0  0  0
   -7.1930    6.7500    8.7820 C   0  0  0  0  0  0  0  0  0  0  0  0
   -8.4240    6.1170    8.7580 C   0  0  0  0  0  0  0  0  0  0  0  0
   -9.3950    6.3570    9.7450 N   0  0  0  0  0  0  0  0  0  0  0  0
  -10.5620    5.6840    9.7600 C   0  0  0  0  0  0  0  0  0  0  0  0
  -11.5770    5.6820   10.5960 N   0  0  0  0  0  0  0  0  0  0  0  0
  -12.4690    4.7490   10.1080 N   0  0  0  0  0  0  0  0  0  0  0  0
  -12.0160    4.1880    8.9920 N   0  0  0  0  0  0  0  0  0  0  0  0
  -10.8400    4.7900    8.7610 N   0  0  0  0  0  0  0  0  0  0  0  0
   -9.9950    4.4790    7.6090 C   0  0  0  0  0  0  0  0  0  0  0  0
   -8.6630    5.2070    7.7200 C   0  0  0  0  0  0  0  0  0  0  0  0
  -10.7490    4.8610    6.3730 C   0  0  0  0  0  0  0  0  0  0  0  0
  -11.0350    6.2020    6.1170 C   0  0  0  0  0  0  0  0  0  0  0  0
  -11.7370    6.5580    4.9650 C   0  0  0  0  0  0  0  0  0  0  0  0
  -12.1550    5.5730    4.0710 C   0  0  0  0  0  0  0  0  0  0  0  0
  -11.8700    4.2310    4.3270 C   0  0  0  0  0  0  0  0  0  0  0  0
  -11.1660    3.8760    5.4790 C   0  0  0  0  0  0  0  0  0  0  0  0
  -12.0160    7.8660    4.7150 O   0  0  0  0  0  0  0  0  0  0  0  0
   -6.8990    7.6510    9.7710 O   0  0  0  0  0  0  0  0  0  0  0  0
   -6.7323    3.1941    5.3587 N   0  0  0  0  0  0  0  0  0  0  0  0
   -6.8145    2.2884    4.3801 N   0  0  0  0  0  0  0  0  0  0  0  0
   -7.9689    2.1680    3.6862 C   0  0  0  0  0  0  0  0  0  0  0  0
   -8.2783    1.0971    2.4306 S   0  0  0  0  0  0  0  0  0  0  0  0
   -9.8452    1.7349    2.2753 C   0  0  0  0  0  0  0  0  0  0  0  0
  -10.8738    1.2260    1.3154 C   0  0  0  0  0  0  0  0  0  0  0  0
  -11.7395    2.2769    0.8868 O   0  0  0  0  0  0  0  0  0  0  0  0
  -11.3864    3.3873    0.0971 C   0  0  0  0  0  0  0  0  0  0  0  0
  -10.1219    3.5442   -0.5193 C   0  0  0  0  0  0  0  0  0  0  0  0
   -9.1516    2.6048   -0.4116 F   0  0  0  0  0  0  0  0  0  0  0  0
   -9.8502    4.6891   -1.2785 C   0  0  0  0  0  0  0  0  0  0  0  0
   -8.6357    4.8400   -1.8632 F   0  0  0  0  0  0  0  0  0  0  0  0
  -10.8256    5.6754   -1.4424 C   0  0  0  0  0  0  0  0  0  0  0  0
  -10.5550    6.7828   -2.1765 F   0  0  0  0  0  0  0  0  0  0  0  0
  -12.0789    5.5218   -0.8478 C   0  0  0  0  0  0  0  0  0  0  0  0
  -13.0268    6.4787   -1.0096 F   0  0  0  0  0  0  0  0  0  0  0  0
  -12.3567    4.3847   -0.0825 C   0  0  0  0  0  0  0  0  0  0  0  0
  -13.5782    4.2481    0.4929 F   0  0  0  0  0  0  0  0  0  0  0  0
  -10.0871    2.7126    3.1838 N   0  0  0  0  0  0  0  0  0  0  0  0
   -9.0309    2.9471    3.9585 N   0  0  0  0  0  0  0  0  0  0  0  0
   -8.9812    3.8803    4.9434 C   0  0  0  0  0  0  0  0  0  0  0  0
   -9.9737    4.6281    5.1622 O   0  0  0  0  0  0  0  0  0  0  0  0
  1  3  4  0
  1 14  4  0
  1  2  1  0
  3  4  4  0
  4  5  4  0
  5  6  4  0
  5 22  1  0
  6  7  1  0
  6 14  4  0
  7  8  1  0
  8  9  4  0
  8 12  4  0
  9 10  4  0
 10 11  4  0
 11 12  4  0
 12 13  1  0
 13 14  1  0
 13 15  1  6
 15 16  4  0
 15 20  4  0
 16 17  4  0
 17 18  4  0
 17 21  1  0
 18 19  4  0
 19 20  4  0
 23 24  4  0
 24 25  4  0
 25 26  4  0
 26 27  4  0
 27 28  1  0
 28 29  1  0
 29 30  1  0
 30 31  4  0
 31 32  1  0
 31 33  4  0
 33 34  1  0
 33 35  4  0
 35 36  1  0
 35 37  4  0
 37 38  1  0
 37 39  4  0
 39 40  1  0
 27 41  4  0
 41 42  4  0
 42 43  4  0
 43 44  2  0
 42 25  4  0
 39 30  4  0
  2 23  4  0
  2 43  4  0
M  END
$$$$

     RDKit          3D

 35 40  0  0  0  0  0  0  0  0999 V2000
   -7.6410    4.9930    6.8080 C   0  0  0  0  0  0  0  0  0  1  0  0
   -7.7310    4.0530    5.7140 C   0  0  0  0  0  0  0  0  0  2  0  0
   -6.4520    5.6300    6.8680 N   0  0  0  0  0  0  0  0  0  0  0  0
   -6.2260    6.5240    7.8670 N   0  0  0  0  0  0  0  0  0  0  0  0
   -7.1930    6.7500    8.7820 C   0  0  0  0  0  0  0  0  0  0  0  0
   -8.4240    6.1170    8.7580 C   0  0  0  0  0  0  0  0  0  0  0  0
   -9.3950    6.3570    9.7450 N   0  0  0  0  0  0  0  0  0  0  0  0
  -10.5620    5.6840    9.7600 C   0  0  0  0  0  0  0  0  0  0  0  0
  -11.5770    5.6820   10.5960 N   0  0  0  0  0  0  0  0  0  0  0  0
  -12.4690    4.7490   10.1080 N   0  0  0  0  0  0  0  0  0  0  0  0
  -12.0160    4.1880    8.9920 N   0  0  0  0  0  0  0  0  0  0  0  0
  -10.8400    4.7900    8.7610 N   0  0  0  0  0  0  0  0  0  0  0  0
   -9.9950    4.4790    7.6090 C   0  0  0  0  0  0  0  0  0  0  0  0
   -8.6630    5.2070    7.7200 C   0  0  0  0  0  0  0  0  0  0  0  0
  -10.7490    4.8610    6.3730 C   0  0  0  0  0  0  0  0  0  0  0  0
  -11.0350    6.2020    6.1170 C   0  0  0  0  0  0  0  0  0  0  0  0
  -11.7370    6.5580    4.9650 C   0  0  0  0  0  0  0  0  0  0  0  0
  -12.1550    5.5730    4.0710 C   0  0  0  0  0  0  0  0  0  0  0  0
  -11.8700    4.2310    4.3270 C   0  0  0  0  0  0  0  0  0  0  0  0
  -11.1660    3.8760    5.4790 C   0  0  0  0  0  0  0  0  0  0  0  0
  -12.0160    7.8660    4.7150 O   0  0  0  0  0  0  0  0  0  0  0  0
   -6.8990    7.6510    9.7710 O   0  0  0  0  0  0  0  0  0  0  0  0
   -6.7805    3.2105    5.2639 N   0  0  0  0  0  0  0  0  0  0  0  0
   -7.2506    2.4451    4.2930 N   0  0  0  0  0  0  0  0  0  0  0  0
   -8.5445    2.7321    4.0715 C   0  0  0  0  0  0  0  0  0  0  0  0
   -8.9238    3.7457    4.9321 C   0  0  0  0  0  0  0  0  0  0  0  0
  -10.2789    4.4025    5.0272 C   0  0  0  0  0  0  0  0  0  0  0  0
  -10.9447    4.4695    3.7164 N   0  0  0  0  0  0  0  0  0  0  0  0
  -12.2024    5.2251    3.8139 C   0  0  0  0  0  0  0  0  0  0  0  0
  -12.8771    5.3082    2.4782 C   0  0  0  0  0  0  0  0  0  0  0  0
  -13.0772    6.4670    1.8136 N   0  0  0  0  0  0  0  0  0  0  0  0
  -13.7235    6.2677    0.6328 C   0  0  0  0  0  0  0  0  0  0  0  0
  -14.0205    7.3933   -0.3024 C   0  0  0  0  0  0  0  0  0  0  0  0
  -14.0309    4.9416    0.3410 C   0  0  0  0  0  0  0  0  0  0  0  0
  -13.4884    3.9959    1.6211 S   0  0  0  0  0  0  0  0  0  0  0  0
  1  3  4  0
  1 14  4  0
  1  2  1  0
  3  4  4  0
  4  5  4  0
  5  6  4  0
  5 22  1  0
  6  7  1  0
  6 14  4  0
  7  8  1  0
  8  9  4  0
  8 12  4  0
  9 10  4  0
 10 11  4  0
 11 12  4  0
 12 13  1  0
 13 14  1  0
 13 15  1  6
 15 16  4  0
 15 20  4  0
 16 17  4  0
 17 18  4  0
 17 21  1  0
 18 19  4  0
 19 20  4  0
 23 24  4  0
 24 25  4  0
 25 26  4  0
 26 27  1  0
 27 28  1  0
 28 29  1  0
 29 30  1  0
 30 31  4  0
 31 32  4  0
 32 33  1  0
 32 34  4  0
 34 35  4  0
 35 30  4  0
  2 23  4  0
  2 26  4  0
M  CHG  1  28   1
M  END
$$$$

     RDKit          3D

 35 40  0  0  0  0  0  0  0  0999 V2000
   -7.6410    4.9930    6.8080 C   0  0  0  0  0  0  0  0  0  1  0  0
   -7.7310    4.0530    5.7140 C   0  0  0  0  0  0  0  0  0  2  0  0
   -6.4520    5.6300    6.8680 N   0  0  0  0  0  0  0  0  0  0  0  0
   -6.2260    6.5240    7.8670 N   0  0  0  0  0  0  0  0  0  0  0  0
   -7.1930    6.7500    8.7820 C   0  0  0  0  0  0  0  0  0  0  0  0
   -8.4240    6.1170    8.7580 C   0  0  0  0  0  0  0  0  0  0  0  0
   -9.3950    6.3570    9.7450 N   0  0  0  0  0  0  0  0  0  0  0  0
  -10.5620    5.6840    9.7600 C   0  0  0  0  0  0  0  0  0  0  0  0
  -11.5770    5.6820   10.5960 N   0  0  0  0  0  0  0  0  0  0  0  0
  -12.4690    4.7490   10.1080 N   0  0  0  0  0  0  0  0  0  0  0  0
  -12.0160    4.1880    8.9920 N   0  0  0  0  0  0  0  0  0  0  0  0
  -10.8400    4.7900    8.7610 N   0  0  0  0  0  0  0  0  0  0  0  0
   -9.9950    4.4790    7.6090 C   0  0  0  0  0  0  0  0  0  0  0  0
   -8.6630    5.2070    7.7200 C   0  0  0  0  0  0  0  0  0  0  0  0
  -10.7490    4.8610    6.3730 C   0  0  0  0  0  0  0  0  0  0  0  0
  -11.0350    6.2020    6.1170 C   0  0  0  0  0  0  0  0  0  0  0  0
  -11.7370    6.5580    4.9650 C   0  0  0  0  0  0  0  0  0  0  0  0
  -12.1550    5.5730    4.0710 C   0  0  0  0  0  0  0  0  0  0  0  0
  -11.8700    4.2310    4.3270 C   0  0  0  0  0  0  0  0  0  0  0  0
  -11.1660    3.8760    5.4790 C   0  0  0  0  0  0  0  0  0  0  0  0
  -12.0160    7.8660    4.7150 O   0  0  0  0  0  0  0  0  0  0  0  0
   -6.8990    7.6510    9.7710 O   0  0  0  0  0  0  0  0  0  0  0  0
   -6.8400    3.1039    5.3600 N   0  0  0  0  0  0  0  0  0  0  0  0
   -7.2951    2.3996    4.3360 N   0  0  0  0  0  0  0  0  0  0  0  0
   -8.5183    2.8364    3.9871 C   0  0  0  0  0  0  0  0  0  0  0  0
   -8.8742    3.8643    4.8348 C   0  0  0  0  0  0  0  0  0  0  0  0
  -10.0669    4.7733    4.6699 C   0  0  0  0  0  0  0  0  0  0  0  0
   -9.9754    5.5786    3.4378 N   0  0  0  0  0  0  0  0  0  0  0  0
   -8.8705    6.5569    3.4957 C   0  0  0  0  0  0  0  0  0  0  0  0
   -8.8352    7.4264    2.2681 C   0  0  0  0  0  0  0  0  0  0  0  0
   -9.7085    7.3352    1.2388 N   0  0  0  0  0  0  0  0  0  0  0  0
   -9.4386    8.2403    0.2594 C   0  0  0  0  0  0  0  0  0  0  0  0
  -10.2562    8.3097   -0.9890 C   0  0  0  0  0  0  0  0  0  0  0  0
   -8.3275    9.0506    0.4902 C   0  0  0  0  0  0  0  0  0  0  0  0
   -7.6894    8.6254    1.9880 S   0  0  0  0  0  0  0  0  0  0  0  0
  1  3  4  0
  1 14  4  0
  1  2  1  0
  3  4  4  0
  4  5  4  0
  5  6  4  0
  5 22  1  0
  6  7  1  0
  6 14  4  0
  7  8  1  0
  8  9  4  0
  8 12  4  0
  9 10  4  0
 10 11  4  0
 11 12  4  0
 12 13  1  0
 13 14  1  0
 13 15  1  6
 15 16  4  0
 15 20  4  0
 16 17  4  0
 17 18  4  0
 17 21  1  0
 18 19  4  0
 19 20  4  0
 23 24  4  0
 24 25  4  0
 25 26  4  0
 26 27  1  0
 27 28  1  0
 28 29  1  0
 29 30  1  0
 30 31  4  0
 31 32  4  0
 32 33  1  0
 32 34  4  0
 34 35  4  0
 35 30  4  0
  2 23  4  0
  2 26  4  0
M  CHG  1  28   1
M  END
$$$$

     RDKit          3D

 49 56  0  0  0  0  0  0  0  0999 V2000
   -7.6410    4.9930    6.8080 C   0  0  0  0  0  0  0  0  0  1  0  0
   -7.7310    4.0530    5.7140 C   0  0  0  0  0  0  0  0  0  2  0  0
   -6.4520    5.6300    6.8680 N   0  0  0  0  0  0  0  0  0  0  0  0
   -6.2260    6.5240    7.8670 N   0  0  0  0  0  0  0  0  0  0  0  0
   -7.1930    6.7500    8.7820 C   0  0  0  0  0  0  0  0  0  0  0  0
   -8.4240    6.1170    8.7580 C   0  0  0  0  0  0  0  0  0  0  0  0
   -9.3950    6.3570    9.7450 N   0  0  0  0  0  0  0  0  0  0  0  0
  -10.5620    5.6840    9.7600 C   0  0  0  0  0  0  0  0  0  0  0  0
  -11.5770    5.6820   10.5960 N   0  0  0  0  0  0  0  0  0  0  0  0
  -12.4690    4.7490   10.1080 N   0  0  0  0  0  0  0  0  0  0  0  0
  -12.0160    4.1880    8.9920 N   0  0  0  0  0  0  0  0  0  0  0  0
  -10.8400    4.7900    8.7610 N   0  0  0  0  0  0  0  0  0  0  0  0
   -9.9950    4.4790    7.6090 C   0  0  0  0  0  0  0  0  0  0  0  0
   -8.6630    5.2070    7.7200 C   0  0  0  0  0  0  0  0  0  0  0  0
  -10.7490    4.8610    6.3730 C   0  0  0  0  0  0  0  0  0  0  0  0
  -11.0350    6.2020    6.1170 C   0  0  0  0  0  0  0  0  0  0  0  0
  -11.7370    6.5580    4.9650 C   0  0  0  0  0  0  0  0  0  0  0  0
  -12.1550    5.5730    4.0710 C   0  0  0  0  0  0  0  0  0  0  0  0
  -11.8700    4.2310    4.3270 C   0  0  0  0  0  0  0  0  0  0  0  0
  -11.1660    3.8760    5.4790 C   0  0  0  0  0  0  0  0  0  0  0  0
  -12.0160    7.8660    4.7150 O   0  0  0  0  0  0  0  0  0  0  0  0
   -6.8990    7.6510    9.7710 O   0  0  0  0  0  0  0  0  0  0  0  0
   -6.9528    2.9578    5.5187 N   0  0  0  0  0  0  0  0  0  0  0  0
   -7.2621    2.3788    4.3667 N   0  0  0  0  0  0  0  0  0  0  0  0
   -6.5605    1.2324    3.8404 C   0  0  0  0  0  0  0  0  0  0  0  0
   -7.0815    0.4926    2.7599 C   0  0  0  0  0  0  0  0  0  0  0  0
   -6.3986   -0.6245    2.2711 C   0  0  0  0  0  0  0  0  0  0  0  0
   -5.1890   -1.0164    2.8458 C   0  0  0  0  0  0  0  0  0  0  0  0
   -4.6618   -0.2909    3.9165 C   0  0  0  0  0  0  0  0  0  0  0  0
   -5.3465    0.8212    4.4176 C   0  0  0  0  0  0  0  0  0  0  0  0
   -8.2524    3.0722    3.7637 C   0  0  0  0  0  0  0  0  0  0  0  0
   -8.6235    4.1191    4.5847 C   0  0  0  0  0  0  0  0  0  0  0  0
   -9.5521    5.2188    4.2441 C   0  0  0  0  0  0  0  0  0  0  0  0
   -9.8991    6.0536    5.1241 O   0  0  0  0  0  0  0  0  0  0  0  0
  -10.0189    5.3916    2.9008 N   0  0  0  0  0  0  0  0  0  0  0  0
   -9.4557    6.5092    2.1308 C   0  0  0  0  0  0  0  0  0  0  0  0
  -10.1883    6.7688    0.8094 C   0  0  0  0  0  0  0  0  0  0  0  0
  -11.6344    7.2621    1.0093 C   0  0  0  0  0  0  0  0  0  0  0  0
  -12.3995    6.5120    2.0416 N   0  0  0  0  0  0  0  0  0  0  0  0
  -13.8104    6.9765    2.0913 C   0  0  0  0  0  0  0  0  0  0  0  0
  -14.5652    6.7887    0.7895 C   0  0  0  0  0  0  0  0  0  0  0  0
  -14.8567    5.6202    0.4125 O   0  0  0  0  0  0  0  0  0  0  0  0
  -14.9691    7.9120   -0.0169 N   0  0  0  0  0  0  0  0  0  0  0  0
  -15.3030    7.7803   -1.4226 C   0  0  0  0  0  0  0  0  0  0  0  0
  -15.4625    9.2053   -1.9367 C   0  0  0  0  0  0  0  0  0  0  0  0
  -15.6534   10.0714   -0.6970 C   0  0  0  0  0  0  0  0  0  0  0  0
  -15.0436    9.2835    0.4520 C   0  0  0  0  0  0  0  0  0  0  0  0
  -12.3122    5.0386    1.8794 C   0  0  0  0  0  0  0  0  0  0  0  0
  -10.9604    4.4183    2.3239 C   0  0  0  0  0  0  0  0  0  0  0  0
  1  3  4  0
  1 14  4  0
  1  2  1  0
  3  4  4  0
  4  5  4  0
  5  6  4  0
  5 22  1  0
  6  7  1  0
  6 14  4  0
  7  8  1  0
  8  9  4  0
  8 12  4  0
  9 10  4  0
 10 11  4  0
 11 12  4  0
 12 13  1  0
 13 14  1  0
 13 15  1  6
 15 16  4  0
 15 20  4  0
 16 17  4  0
 17 18  4  0
 17 21  1  0
 18 19  4  0
 19 20  4  0
 23 24  4  0
 24 25  1  0
 25 26  4  0
 26 27  4  0
 27 28  4  0
 28 29  4  0
 29 30  4  0
 24 31  4  0
 31 32  4  0
 32 33  1  0
 33 34  2  0
 33 35  1  0
 35 36  1  0
 36 37  1  0
 37 38  1  0
 38 39  1  0
 39 40  1  0
 40 41  1  0
 41 42  2  0
 41 43  1  0
 43 44  1  0
 44 45  1  0
 45 46  1  0
 46 47  1  0
 39 48  1  0
 48 49  1  0
 49 35  1  0
 30 25  4  0
 47 43  1  0
  2 23  4  0
  2 32  4  0
M  CHG  1  39   1
M  END
$$$$

     RDKit          3D

 49 56  0  0  0  0  0  0  0  0999 V2000
   -7.6410    4.9930    6.8080 C   0  0  0  0  0  0  0  0  0  1  0  0
   -7.7310    4.0530    5.7140 C   0  0  0  0  0  0  0  0  0  2  0  0
   -6.4520    5.6300    6.8680 N   0  0  0  0  0  0  0  0  0  0  0  0
   -6.2260    6.5240    7.8670 N   0  0  0  0  0  0  0  0  0  0  0  0
   -7.1930    6.7500    8.7820 C   0  0  0  0  0  0  0  0  0  0  0  0
   -8.4240    6.1170    8.7580 C   0  0  0  0  0  0  0  0  0  0  0  0
   -9.3950    6.3570    9.7450 N   0  0  0  0  0  0  0  0  0  0  0  0
  -10.5620    5.6840    9.7600 C   0  0  0  0  0  0  0  0  0  0  0  0
  -11.5770    5.6820   10.5960 N   0  0  0  0  0  0  0  0  0  0  0  0
  -12.4690    4.7490   10.1080 N   0  0  0  0  0  0  0  0  0  0  0  0
  -12.0160    4.1880    8.9920 N   0  0  0  0  0  0  0  0  0  0  0  0
  -10.8400    4.7900    8.7610 N   0  0  0  0  0  0  0  0  0  0  0  0
   -9.9950    4.4790    7.6090 C   0  0  0  0  0  0  0  0  0  0  0  0
   -8.6630    5.2070    7.7200 C   0  0  0  0  0  0  0  0  0  0  0  0
  -10.7490    4.8610    6.3730 C   0  0  0  0  0  0  0  0  0  0  0  0
  -11.0350    6.2020    6.1170 C   0  0  0  0  0  0  0  0  0  0  0  0
  -11.7370    6.5580    4.9650 C   0  0  0  0  0  0  0  0  0  0  0  0
  -12.1550    5.5730    4.0710 C   0  0  0  0  0  0  0  0  0  0  0  0
  -11.8700    4.2310    4.3270 C   0  0  0  0  0  0  0  0  0  0  0  0
  -11.1660    3.8760    5.4790 C   0  0  0  0  0  0  0  0  0  0  0  0
  -12.0160    7.8660    4.7150 O   0  0  0  0  0  0  0  0  0  0  0  0
   -6.8990    7.6510    9.7710 O   0  0  0  0  0  0  0  0  0  0  0  0
   -6.7585    3.2936    5.1805 N   0  0  0  0  0  0  0  0  0  0  0  0
   -7.2151    2.5753    4.1638 N   0  0  0  0  0  0  0  0  0  0  0  0
   -6.3806    1.7092    3.3664 C   0  0  0  0  0  0  0  0  0  0  0  0
   -6.9263    0.8732    2.3706 C   0  0  0  0  0  0  0  0  0  0  0  0
   -6.0991    0.0375    1.6155 C   0  0  0  0  0  0  0  0  0  0  0  0
   -4.7232    0.0111    1.8503 C   0  0  0  0  0  0  0  0  0  0  0  0
   -4.1698    0.8288    2.8359 C   0  0  0  0  0  0  0  0  0  0  0  0
   -4.9903    1.6763    3.5867 C   0  0  0  0  0  0  0  0  0  0  0  0
   -8.5303    2.8302    3.9925 C   0  0  0  0  0  0  0  0  0  0  0  0
   -8.9273    3.7320    4.9525 C   0  0  0  0  0  0  0  0  0  0  0  0
  -10.2368    4.3999    4.9935 C   0  0  0  0  0  0  0  0  0  0  0  0
  -11.1792    3.8409    5.6145 O   0  0  0  0  0  0  0  0  0  0  0  0
  -10.4873    5.6065    4.2419 N   0  0  0  0  0  0  0  0  0  0  0  0
   -9.3839    6.5212    3.9101 C   0  0  0  0  0  0  0  0  0  0  0  0
   -8.8710    6.2795    2.4884 C   0  0  0  0  0  0  0  0  0  0  0  0
   -9.9679    5.8627    1.4892 C   0  0  0  0  0  0  0  0  0  0  0  0
  -11.1176    6.8023    1.4011 N   0  0  0  0  0  0  0  0  0  0  0  0
  -10.6851    8.1233    0.8633 C   0  0  0  0  0  0  0  0  0  0  0  0
  -11.7965    8.8198    0.1049 C   0  0  0  0  0  0  0  0  0  0  0  0
  -12.8765    9.0770    0.7064 O   0  0  0  0  0  0  0  0  0  0  0  0
  -11.6460    9.2117   -1.2750 N   0  0  0  0  0  0  0  0  0  0  0  0
  -10.3786    9.2442   -1.9860 C   0  0  0  0  0  0  0  0  0  0  0  0
  -10.6746    9.8220   -3.3648 C   0  0  0  0  0  0  0  0  0  0  0  0
  -12.1608   10.1752   -3.3925 C   0  0  0  0  0  0  0  0  0  0  0  0
  -12.7537    9.7159   -2.0650 C   0  0  0  0  0  0  0  0  0  0  0  0
  -11.9278    6.9603    2.6527 C   0  0  0  0  0  0  0  0  0  0  0  0
  -11.8337    5.7963    3.6681 C   0  0  0  0  0  0  0  0  0  0  0  0
  1  3  4  0
  1 14  4  0
  1  2  1  0
  3  4  4  0
  4  5  4  0
  5  6  4  0
  5 22  1  0
  6  7  1  0
  6 14  4  0
  7  8  1  0
  8  9  4  0
  8 12  4  0
  9 10  4  0
 10 11  4  0
 11 12  4  0
 12 13  1  0
 13 14  1  0
 13 15  1  6
 15 16  4  0
 15 20  4  0
 16 17  4  0
 17 18  4  0
 17 21  1  0
 18 19  4  0
 19 20  4  0
 23 24  4  0
 24 25  1  0
 25 26  4  0
 26 27  4  0
 27 28  4  0
 28 29  4  0
 29 30  4  0
 24 31  4  0
 31 32  4  0
 32 33  1  0
 33 34  2  0
 33 35  1  0
 35 36  1  0
 36 37  1  0
 37 38  1  0
 38 39  1  0
 39 40  1  0
 40 41  1  0
 41 42  2  0
 41 43  1  0
 43 44  1  0
 44 45  1  0
 45 46  1  0
 46 47  1  0
 39 48  1  0
 48 49  1  0
 49 35  1  0
 30 25  4  0
 47 43  1  0
  2 23  4  0
  2 32  4  0
M  CHG  1  39   1
M  END
$$$$

     RDKit          3D

 47 53  0  0  0  0  0  0  0  0999 V2000
   -7.6410    4.9930    6.8080 C   0  0  0  0  0  0  0  0  0  1  0  0
   -7.7310    4.0530    5.7140 C   0  0  0  0  0  0  0  0  0  2  0  0
   -6.4520    5.6300    6.8680 N   0  0  0  0  0  0  0  0  0  0  0  0
   -6.2260    6.5240    7.8670 N   0  0  0  0  0  0  0  0  0  0  0  0
   -7.1930    6.7500    8.7820 C   0  0  0  0  0  0  0  0  0  0  0  0
   -8.4240    6.1170    8.7580 C   0  0  0  0  0  0  0  0  0  0  0  0
   -9.3950    6.3570    9.7450 N   0  0  0  0  0  0  0  0  0  0  0  0
  -10.5620    5.6840    9.7600 C   0  0  0  0  0  0  0  0  0  0  0  0
  -11.5770    5.6820   10.5960 N   0  0  0  0  0  0  0  0  0  0  0  0
  -12.4690    4.7490   10.1080 N   0  0  0  0  0  0  0  0  0  0  0  0
  -12.0160    4.1880    8.9920 N   0  0  0  0  0  0  0  0  0  0  0  0
  -10.8400    4.7900    8.7610 N   0  0  0  0  0  0  0  0  0  0  0  0
   -9.9950    4.4790    7.6090 C   0  0  0  0  0  0  0  0  0  0  0  0
   -8.6630    5.2070    7.7200 C   0  0  0  0  0  0  0  0  0  0  0  0
  -10.7490    4.8610    6.3730 C   0  0  0  0  0  0  0  0  0  0  0  0
  -11.0350    6.2020    6.1170 C   0  0  0  0  0  0  0  0  0  0  0  0
  -11.7370    6.5580    4.9650 C   0  0  0  0  0  0  0  0  0  0  0  0
  -12.1550    5.5730    4.0710 C   0  0  0  0  0  0  0  0  0  0  0  0
  -11.8700    4.2310    4.3270 C   0  0  0  0  0  0  0  0  0  0  0  0
  -11.1660    3.8760    5.4790 C   0  0  0  0  0  0  0  0  0  0  0  0
  -12.0160    7.8660    4.7150 O   0  0  0  0  0  0  0  0  0  0  0  0
   -6.8990    7.6510    9.7710 O   0  0  0  0  0  0  0  0  0  0  0  0
   -6.8110    3.1438    5.3309 N   0  0  0  0  0  0  0  0  0  0  0  0
   -7.2834    2.3894    4.3514 N   0  0  0  0  0  0  0  0  0  0  0  0
   -6.5312    1.3054    3.7279 C   0  0  0  0  0  0  0  0  0  0  0  0
   -6.6622    0.0499    4.5463 C   0  0  0  0  0  0  0  0  0  0  0  0
   -7.8883   -0.6346    4.5938 C   0  0  0  0  0  0  0  0  0  0  0  0
   -8.0170   -1.7972    5.3600 C   0  0  0  0  0  0  0  0  0  0  0  0
   -6.9248   -2.2844    6.0829 C   0  0  0  0  0  0  0  0  0  0  0  0
   -5.7024   -1.6089    6.0414 C   0  0  0  0  0  0  0  0  0  0  0  0
   -5.5685   -0.4465    5.2758 C   0  0  0  0  0  0  0  0  0  0  0  0
   -8.5528    2.7363    4.0694 C   0  0  0  0  0  0  0  0  0  0  0  0
   -8.9090    3.7799    4.8986 C   0  0  0  0  0  0  0  0  0  0  0  0
  -10.1685    4.5375    4.8199 C   0  0  0  0  0  0  0  0  0  0  0  0
  -10.2603    5.6782    5.3492 O   0  0  0  0  0  0  0  0  0  0  0  0
  -11.2495    3.9954    4.1144 O   0  0  0  0  0  0  0  0  0  0  0  0
  -12.4722    4.6970    3.9024 C   0  0  0  0  0  0  0  0  0  0  0  0
  -12.2619    5.8171    2.9287 C   0  0  0  0  0  0  0  0  0  0  0  0
  -11.9130    5.5446    1.7484 O   0  0  0  0  0  0  0  0  0  0  0  0
  -12.4346    7.1837    3.3427 N   0  0  0  0  0  0  0  0  0  0  0  0
  -12.1630    8.3336    2.4645 C   0  0  0  0  0  0  0  0  0  0  0  0
  -10.7387    8.3306    2.0642 C   0  0  0  0  0  0  0  0  0  0  0  0
   -9.6245    8.3273    1.7514 N   0  0  0  0  0  0  0  0  0  0  0  0
  -12.5001    9.6560    3.1606 C   0  0  0  0  0  0  0  0  0  0  0  0
  -12.8488   10.6335    2.0453 C   0  0  0  0  0  0  0  0  0  0  0  0
  -13.2916    9.7902    0.8509 C   0  0  0  0  0  0  0  0  0  0  0  0
  -13.0735    8.3272    1.2320 C   0  0  0  0  0  0  0  0  0  0  0  0
  1  3  4  0
  1 14  4  0
  1  2  1  0
  3  4  4  0
  4  5  4  0
  5  6  4  0
  5 22  1  0
  6  7  1  0
  6 14  4  0
  7  8  1  0
  8  9  4  0
  8 12  4  0
  9 10  4  0
 10 11  4  0
 11 12  4  0
 12 13  1  0
 13 14  1  0
 13 15  1  6
 15 16  4  0
 15 20  4  0
 16 17  4  0
 17 18  4  0
 17 21  1  0
 18 19  4  0
 19 20  4  0
 23 24  4  0
 24 25  1  0
 25 26  1  0
 26 27  4  0
 27 28  4  0
 28 29  4  0
 29 30  4  0
 30 31  4  0
 24 32  4  0
 32 33  4  0
 33 34  1  0
 34 35  2  0
 34 36  1  0
 36 37  1  0
 37 38  1  0
 38 39  2  0
 38 40  1  0
 40 41  1  0
 41 42  1  0
 42 43  3  0
 41 44  1  0
 44 45  1  0
 45 46  1  0
 46 47  1  0
 47 41  1  0
 31 26  4  0
  2 23  4  0
  2 33  4  0
M  END
$$$$

     RDKit          3D

 47 53  0  0  0  0  0  0  0  0999 V2000
   -7.6410    4.9930    6.8080 C   0  0  0  0  0  0  0  0  0  1  0  0
   -7.7310    4.0530    5.7140 C   0  0  0  0  0  0  0  0  0  2  0  0
   -6.4520    5.6300    6.8680 N   0  0  0  0  0  0  0  0  0  0  0  0
   -6.2260    6.5240    7.8670 N   0  0  0  0  0  0  0  0  0  0  0  0
   -7.1930    6.7500    8.7820 C   0  0  0  0  0  0  0  0  0  0  0  0
   -8.4240    6.1170    8.7580 C   0  0  0  0  0  0  0  0  0  0  0  0
   -9.3950    6.3570    9.7450 N   0  0  0  0  0  0  0  0  0  0  0  0
  -10.5620    5.6840    9.7600 C   0  0  0  0  0  0  0  0  0  0  0  0
  -11.5770    5.6820   10.5960 N   0  0  0  0  0  0  0  0  0  0  0  0
  -12.4690    4.7490   10.1080 N   0  0  0  0  0  0  0  0  0  0  0  0
  -12.0160    4.1880    8.9920 N   0  0  0  0  0  0  0  0  0  0  0  0
  -10.8400    4.7900    8.7610 N   0  0  0  0  0  0  0  0  0  0  0  0
   -9.9950    4.4790    7.6090 C   0  0  0  0  0  0  0  0  0  0  0  0
   -8.6630    5.2070    7.7200 C   0  0  0  0  0  0  0  0  0  0  0  0
  -10.7490    4.8610    6.3730 C   0  0  0  0  0  0  0  0  0  0  0  0
  -11.0350    6.2020    6.1170 C   0  0  0  0  0  0  0  0  0  0  0  0
  -11.7370    6.5580    4.9650 C   0  0  0  0  0  0  0  0  0  0  0  0
  -12.1550    5.5730    4.0710 C   0  0  0  0  0  0  0  0  0  0  0  0
  -11.8700    4.2310    4.3270 C   0  0  0  0  0  0  0  0  0  0  0  0
  -11.1660    3.8760    5.4790 C   0  0  0  0  0  0  0  0  0  0  0  0
  -12.0160    7.8660    4.7150 O   0  0  0  0  0  0  0  0  0  0  0  0
   -6.8990    7.6510    9.7710 O   0  0  0  0  0  0  0  0  0  0  0  0
   -6.8504    3.0804    5.3943 N   0  0  0  0  0  0  0  0  0  0  0  0
   -7.3119    2.3537    4.3887 N   0  0  0  0  0  0  0  0  0  0  0  0
   -6.6027    1.2144    3.8161 C   0  0  0  0  0  0  0  0  0  0  0  0
   -7.0846   -0.0653    4.4442 C   0  0  0  0  0  0  0  0  0  0  0  0
   -6.8480   -0.3126    5.8064 C   0  0  0  0  0  0  0  0  0  0  0  0
   -7.2925   -1.5007    6.3959 C   0  0  0  0  0  0  0  0  0  0  0  0
   -7.9735   -2.4505    5.6295 C   0  0  0  0  0  0  0  0  0  0  0  0
   -8.2084   -2.2145    4.2717 C   0  0  0  0  0  0  0  0  0  0  0  0
   -7.7693   -1.0255    3.6796 C   0  0  0  0  0  0  0  0  0  0  0  0
   -8.5344    2.7852    4.0270 C   0  0  0  0  0  0  0  0  0  0  0  0
   -8.8702    3.8554    4.8318 C   0  0  0  0  0  0  0  0  0  0  0  0
  -10.0703    4.6965    4.6806 C   0  0  0  0  0  0  0  0  0  0  0  0
  -10.1786    5.7752    5.3216 O   0  0  0  0  0  0  0  0  0  0  0  0
  -11.0608    4.3166    3.7706 O   0  0  0  0  0  0  0  0  0  0  0  0
  -12.2782    5.0399    3.6091 C   0  0  0  0  0  0  0  0  0  0  0  0
  -13.0440    4.5211    2.4315 C   0  0  0  0  0  0  0  0  0  0  0  0
  -12.5100    3.6843    1.6535 O   0  0  0  0  0  0  0  0  0  0  0  0
  -14.3736    5.0075    2.1792 N   0  0  0  0  0  0  0  0  0  0  0  0
  -15.1826    4.6159    1.0090 C   0  0  0  0  0  0  0  0  0  0  0  0
  -14.4452    4.9103   -0.2369 C   0  0  0  0  0  0  0  0  0  0  0  0
  -13.8673    5.1412   -1.2133 N   0  0  0  0  0  0  0  0  0  0  0  0
  -16.5258    5.3515    1.0140 C   0  0  0  0  0  0  0  0  0  0  0  0
  -17.4364    4.5265    1.9163 C   0  0  0  0  0  0  0  0  0  0  0  0
  -16.8681    3.1087    1.9266 C   0  0  0  0  0  0  0  0  0  0  0  0
  -15.5856    3.1402    1.0993 C   0  0  0  0  0  0  0  0  0  0  0  0
  1  3  4  0
  1 14  4  0
  1  2  1  0
  3  4  4  0
  4  5  4  0
  5  6  4  0
  5 22  1  0
  6  7  1  0
  6 14  4  0
  7  8  1  0
  8  9  4  0
  8 12  4  0
  9 10  4  0
 10 11  4  0
 11 12  4  0
 12 13  1  0
 13 14  1  0
 13 15  1  6
 15 16  4  0
 15 20  4  0
 16 17  4  0
 17 18  4  0
 17 21  1  0
 18 19  4  0
 19 20  4  0
 23 24  4  0
 24 25  1  0
 25 26  1  0
 26 27  4  0
 27 28  4  0
 28 29  4  0
 29 30  4  0
 30 31  4  0
 24 32  4  0
 32 33  4  0
 33 34  1  0
 34 35  2  0
 34 36  1  0
 36 37  1  0
 37 38  1  0
 38 39  2  0
 38 40  1  0
 40 41  1  0
 41 42  1  0
 42 43  3  0
 41 44  1  0
 44 45  1  0
 45 46  1  0
 46 47  1  0
 47 41  1  0
 31 26  4  0
  2 23  4  0
  2 33  4  0
M  END
$$$$

     RDKit          3D

 38 44  0  0  0  0  0  0  0  0999 V2000
   -7.6410    4.9930    6.8080 C   0  0  0  0  0  0  0  0  0  1  0  0
   -7.7310    4.0530    5.7140 C   0  0  0  0  0  0  0  0  0  2  0  0
   -6.4520    5.6300    6.8680 N   0  0  0  0  0  0  0  0  0  0  0  0
   -6.2260    6.5240    7.8670 N   0  0  0  0  0  0  0  0  0  0  0  0
   -7.1930    6.7500    8.7820 C   0  0  0  0  0  0  0  0  0  0  0  0
   -8.4240    6.1170    8.7580 C   0  0  0  0  0  0  0  0  0  0  0  0
   -9.3950    6.3570    9.7450 N   0  0  0  0  0  0  0  0  0  0  0  0
  -10.5620    5.6840    9.7600 C   0  0  0  0  0  0  0  0  0  0  0  0
  -11.5770    5.6820   10.5960 N   0  0  0  0  0  0  0  0  0  0  0  0
  -12.4690    4.7490   10.1080 N   0  0  0  0  0  0  0  0  0  0  0  0
  -12.0160    4.1880    8.9920 N   0  0  0  0  0  0  0  0  0  0  0  0
  -10.8400    4.7900    8.7610 N   0  0  0  0  0  0  0  0  0  0  0  0
   -9.9950    4.4790    7.6090 C   0  0  0  0  0  0  0  0  0  0  0  0
   -8.6630    5.2070    7.7200 C   0  0  0  0  0  0  0  0  0  0  0  0
  -10.7490    4.8610    6.3730 C   0  0  0  0  0  0  0  0  0  0  0  0
  -11.0350    6.2020    6.1170 C   0  0  0  0  0  0  0  0  0  0  0  0
  -11.7370    6.5580    4.9650 C   0  0  0  0  0  0  0  0  0  0  0  0
  -12.1550    5.5730    4.0710 C   0  0  0  0  0  0  0  0  0  0  0  0
  -11.8700    4.2310    4.3270 C   0  0  0  0  0  0  0  0  0  0  0  0
  -11.1660    3.8760    5.4790 C   0  0  0  0  0  0  0  0  0  0  0  0
  -12.0160    7.8660    4.7150 O   0  0  0  0  0  0  0  0  0  0  0  0
   -6.8990    7.6510    9.7710 O   0  0  0  0  0  0  0  0  0  0  0  0
   -6.8951    2.9413    5.5084 C   0  0  0  0  0  0  0  0  0  0  0  0
   -7.4141    1.9826    4.2165 S   0  0  0  0  0  0  0  0  0  0  0  0
   -8.7563    2.9234    3.8768 C   0  0  0  0  0  0  0  0  0  0  0  0
   -9.6534    2.7205    2.8854 N   0  0  0  0  0  0  0  0  0  0  0  0
  -10.6731    3.6099    2.7193 C   0  0  0  0  0  0  0  0  0  1  0  0
  -11.6647    3.3793    1.6471 C   0  0  0  0  0  0  0  0  0  2  0  0
  -12.2940    2.1246    1.5797 C   0  0  0  0  0  0  0  0  0  0  0  0
  -13.2585    1.8649    0.6047 C   0  0  0  0  0  0  0  0  0  0  0  0
  -13.6034    2.8520   -0.3177 C   0  0  0  0  0  0  0  0  0  0  0  0
  -12.9730    4.0971   -0.2791 C   0  0  0  0  0  0  0  0  0  0  0  0
  -11.9848    4.3699    0.6828 C   0  0  0  0  0  0  0  0  0  0  0  0
  -11.3040    5.7139    0.6556 C   0  0  0  0  0  0  0  0  0  0  0  0
  -10.7846    4.6890    3.5583 N   0  0  0  0  0  0  0  0  0  0  0  0
   -9.8792    4.9119    4.5565 C   0  0  0  0  0  0  0  0  0  0  0  0
   -9.9856    5.9381    5.2793 O   0  0  0  0  0  0  0  0  0  0  0  0
   -8.8356    3.9944    4.7435 C   0  0  0  0  0  0  0  0  0  0  0  0
  1  3  4  0
  1 14  4  0
  1  2  1  0
  3  4  4  0
  4  5  4  0
  5  6  4  0
  5 22  1  0
  6  7  1  0
  6 14  4  0
  7  8  1  0
  8  9  4  0
  8 12  4  0
  9 10  4  0
 10 11  4  0
 11 12  4  0
 12 13  1  0
 13 14  1  0
 13 15  1  6
 15 16  4  0
 15 20  4  0
 16 17  4  0
 17 18  4  0
 17 21  1  0
 18 19  4  0
 19 20  4  0
 23 24  4  0
 24 25  4  0
 25 26  4  0
 26 27  4  0
 27 28  1  0
 28 29  4  0
 29 30  4  0
 30 31  4  0
 31 32  4  0
 32 33  4  0
 33 34  1  0
 27 35  4  0
 35 36  4  0
 36 37  2  0
 36 38  4  0
 38 25  4  0
 33 28  4  0
  2 23  4  0
  2 38  4  0
M  END
$$$$

     RDKit          3D

 42 48  0  0  0  0  0  0  0  0999 V2000
   -7.6410    4.9930    6.8080 C   0  0  0  0  0  0  0  0  0  1  0  0
   -7.7310    4.0530    5.7140 C   0  0  0  0  0  0  0  0  0  2  0  0
   -6.4520    5.6300    6.8680 N   0  0  0  0  0  0  0  0  0  0  0  0
   -6.2260    6.5240    7.8670 N   0  0  0  0  0  0  0  0  0  0  0  0
   -7.1930    6.7500    8.7820 C   0  0  0  0  0  0  0  0  0  0  0  0
   -8.4240    6.1170    8.7580 C   0  0  0  0  0  0  0  0  0  0  0  0
   -9.3950    6.3570    9.7450 N   0  0  0  0  0  0  0  0  0  0  0  0
  -10.5620    5.6840    9.7600 C   0  0  0  0  0  0  0  0  0  0  0  0
  -11.5770    5.6820   10.5960 N   0  0  0  0  0  0  0  0  0  0  0  0
  -12.4690    4.7490   10.1080 N   0  0  0  0  0  0  0  0  0  0  0  0
  -12.0160    4.1880    8.9920 N   0  0  0  0  0  0  0  0  0  0  0  0
  -10.8400    4.7900    8.7610 N   0  0  0  0  0  0  0  0  0  0  0  0
   -9.9950    4.4790    7.6090 C   0  0  0  0  0  0  0  0  0  0  0  0
   -8.6630    5.2070    7.7200 C   0  0  0  0  0  0  0  0  0  0  0  0
  -10.7490    4.8610    6.3730 C   0  0  0  0  0  0  0  0  0  0  0  0
  -11.0350    6.2020    6.1170 C   0  0  0  0  0  0  0  0  0  0  0  0
  -11.7370    6.5580    4.9650 C   0  0  0  0  0  0  0  0  0  0  0  0
  -12.1550    5.5730    4.0710 C   0  0  0  0  0  0  0  0  0  0  0  0
  -11.8700    4.2310    4.3270 C   0  0  0  0  0  0  0  0  0  0  0  0
  -11.1660    3.8760    5.4790 C   0  0  0  0  0  0  0  0  0  0  0  0
  -12.0160    7.8660    4.7150 O   0  0  0  0  0  0  0  0  0  0  0  0
   -6.8990    7.6510    9.7710 O   0  0  0  0  0  0  0  0  0  0  0  0
   -6.7855    3.1285    5.3903 N   0  0  0  0  0  0  0  0  0  0  0  0
   -7.1244    2.2831    4.3938 C   0  0  0  0  0  0  0  0  0  0  0  0
   -6.1977    1.2606    3.8311 C   0  0  0  0  0  0  0  0  0  0  0  0
   -8.6636    2.6062    3.8077 S   0  0  0  0  0  0  0  0  0  0  0  0
   -8.9235    3.8860    4.8763 C   0  0  0  0  0  0  0  0  0  0  0  0
  -10.1778    4.7158    4.9304 C   0  0  0  0  0  0  0  0  0  0  0  0
  -10.6950    5.0089    3.5531 C   0  0  0  0  0  0  0  0  0  0  0  0
  -10.0363    5.7754    2.7991 O   0  0  0  0  0  0  0  0  0  0  0  0
  -11.8985    4.3788    3.0853 N   0  0  0  0  0  0  0  0  0  0  0  0
  -12.5697    4.7301    1.8631 C   0  0  0  0  0  0  0  0  0  0  0  0
  -12.6140    6.0590    1.4058 C   0  0  0  0  0  0  0  0  0  0  0  0
  -13.2975    6.3784    0.2299 C   0  0  0  0  0  0  0  0  0  0  0  0
  -13.9590    5.3813   -0.4929 C   0  0  0  0  0  0  0  0  0  0  0  0
  -13.9051    4.0447   -0.0578 C   0  0  0  0  0  0  0  0  0  0  0  0
  -13.2327    3.7323    1.1324 C   0  0  0  0  0  0  0  0  0  0  0  0
  -14.4583    2.9930   -0.8640 N   0  0  0  0  0  0  0  0  0  0  0  0
  -14.6766    3.1607   -2.2716 C   0  0  0  0  0  0  0  0  0  0  0  0
  -15.1241    2.2011   -2.9541 O   0  0  0  0  0  0  0  0  0  0  0  0
  -14.3257    4.4536   -2.9439 C   0  0  0  0  0  0  0  0  0  0  0  0
  -14.9404    5.8332   -1.9311 S   0  0  0  0  0  0  0  0  0  0  0  0
  1  3  4  0
  1 14  4  0
  1  2  1  0
  3  4  4  0
  4  5  4  0
  5  6  4  0
  5 22  1  0
  6  7  1  0
  6 14  4  0
  7  8  1  0
  8  9  4  0
  8 12  4  0
  9 10  4  0
 10 11  4  0
 11 12  4  0
 12 13  1  0
 13 14  1  0
 13 15  1  6
 15 16  4  0
 15 20  4  0
 16 17  4  0
 17 18  4  0
 17 21  1  0
 18 19  4  0
 19 20  4  0
 23 24  4  0
 24 25  1  0
 24 26  4  0
 26 27  4  0
 27 28  1  0
 28 29  1  0
 29 30  2  0
 29 31  1  0
 31 32  1  0
 32 33  4  0
 33 34  4  0
 34 35  4  0
 35 36  4  0
 36 37  4  0
 36 38  1  0
 38 39  1  0
 39 40  2  0
 39 41  1  0
 41 42  1  0
 37 32  4  0
 42 35  1  0
  2 23  4  0
  2 27  4  0
M  END
$$$$

     RDKit          3D

 42 48  0  0  0  0  0  0  0  0999 V2000
   -7.6410    4.9930    6.8080 C   0  0  0  0  0  0  0  0  0  1  0  0
   -7.7310    4.0530    5.7140 C   0  0  0  0  0  0  0  0  0  2  0  0
   -6.4520    5.6300    6.8680 N   0  0  0  0  0  0  0  0  0  0  0  0
   -6.2260    6.5240    7.8670 N   0  0  0  0  0  0  0  0  0  0  0  0
   -7.1930    6.7500    8.7820 C   0  0  0  0  0  0  0  0  0  0  0  0
   -8.4240    6.1170    8.7580 C   0  0  0  0  0  0  0  0  0  0  0  0
   -9.3950    6.3570    9.7450 N   0  0  0  0  0  0  0  0  0  0  0  0
  -10.5620    5.6840    9.7600 C   0  0  0  0  0  0  0  0  0  0  0  0
  -11.5770    5.6820   10.5960 N   0  0  0  0  0  0  0  0  0  0  0  0
  -12.4690    4.7490   10.1080 N   0  0  0  0  0  0  0  0  0  0  0  0
  -12.0160    4.1880    8.9920 N   0  0  0  0  0  0  0  0  0  0  0  0
  -10.8400    4.7900    8.7610 N   0  0  0  0  0  0  0  0  0  0  0  0
   -9.9950    4.4790    7.6090 C   0  0  0  0  0  0  0  0  0  0  0  0
   -8.6630    5.2070    7.7200 C   0  0  0  0  0  0  0  0  0  0  0  0
  -10.7490    4.8610    6.3730 C   0  0  0  0  0  0  0  0  0  0  0  0
  -11.0350    6.2020    6.1170 C   0  0  0  0  0  0  0  0  0  0  0  0
  -11.7370    6.5580    4.9650 C   0  0  0  0  0  0  0  0  0  0  0  0
  -12.1550    5.5730    4.0710 C   0  0  0  0  0  0  0  0  0  0  0  0
  -11.8700    4.2310    4.3270 C   0  0  0  0  0  0  0  0  0  0  0  0
  -11.1660    3.8760    5.4790 C   0  0  0  0  0  0  0  0  0  0  0  0
  -12.0160    7.8660    4.7150 O   0  0  0  0  0  0  0  0  0  0  0  0
   -6.8990    7.6510    9.7710 O   0  0  0  0  0  0  0  0  0  0  0  0
   -6.8512    3.0387    5.4725 N   0  0  0  0  0  0  0  0  0  0  0  0
   -7.1556    2.2663    4.4084 C   0  0  0  0  0  0  0  0  0  0  0  0
   -6.2691    1.1812    3.9014 C   0  0  0  0  0  0  0  0  0  0  0  0
   -8.5615    2.7866    3.6510 S   0  0  0  0  0  0  0  0  0  0  0  0
   -8.8368    4.0188    4.7629 C   0  0  0  0  0  0  0  0  0  0  0  0
   -9.9120    5.0603    4.6124 C   0  0  0  0  0  0  0  0  0  0  0  0
   -9.3961    6.3476    4.0281 C   0  0  0  0  0  0  0  0  0  0  0  0
   -8.1711    6.4839    3.7560 O   0  0  0  0  0  0  0  0  0  0  0  0
  -10.3087    7.4369    3.8227 N   0  0  0  0  0  0  0  0  0  0  0  0
  -10.0078    8.6099    3.0459 C   0  0  0  0  0  0  0  0  0  0  0  0
   -9.1729    8.5484    1.9148 C   0  0  0  0  0  0  0  0  0  0  0  0
   -8.9088    9.6997    1.1677 C   0  0  0  0  0  0  0  0  0  0  0  0
   -9.4837   10.9210    1.5311 C   0  0  0  0  0  0  0  0  0  0  0  0
  -10.3751   10.9821    2.6177 C   0  0  0  0  0  0  0  0  0  0  0  0
  -10.6196    9.8286    3.3774 C   0  0  0  0  0  0  0  0  0  0  0  0
  -11.1058   12.1874    2.8914 N   0  0  0  0  0  0  0  0  0  0  0  0
  -11.3087   13.1886    1.8836 C   0  0  0  0  0  0  0  0  0  0  0  0
  -11.9927   14.2128    2.1480 O   0  0  0  0  0  0  0  0  0  0  0  0
  -10.7528   12.9997    0.5044 C   0  0  0  0  0  0  0  0  0  0  0  0
   -9.0367   12.4150    0.6350 S   0  0  0  0  0  0  0  0  0  0  0  0
  1  3  4  0
  1 14  4  0
  1  2  1  0
  3  4  4  0
  4  5  4  0
  5  6  4  0
  5 22  1  0
  6  7  1  0
  6 14  4  0
  7  8  1  0
  8  9  4  0
  8 12  4  0
  9 10  4  0
 10 11  4  0
 11 12  4  0
 12 13  1  0
 13 14  1  0
 13 15  1  6
 15 16  4  0
 15 20  4  0
 16 17  4  0
 17 18  4  0
 17 21  1  0
 18 19  4  0
 19 20  4  0
 23 24  4  0
 24 25  1  0
 24 26  4  0
 26 27  4  0
 27 28  1  0
 28 29  1  0
 29 30  2  0
 29 31  1  0
 31 32  1  0
 32 33  4  0
 33 34  4  0
 34 35  4  0
 35 36  4  0
 36 37  4  0
 36 38  1  0
 38 39  1  0
 39 40  2  0
 39 41  1  0
 41 42  1  0
 37 32  4  0
 42 35  1  0
  2 23  4  0
  2 27  4  0
M  END
$$$$

     RDKit          3D

 33 37  0  0  0  0  0  0  0  0999 V2000
   -7.6410    4.9930    6.8080 C   0  0  0  0  0  0  0  0  0  1  0  0
   -7.7310    4.0530    5.7140 C   0  0  0  0  0  0  0  0  0  2  0  0
   -6.4520    5.6300    6.8680 N   0  0  0  0  0  0  0  0  0  0  0  0
   -6.2260    6.5240    7.8670 N   0  0  0  0  0  0  0  0  0  0  0  0
   -7.1930    6.7500    8.7820 C   0  0  0  0  0  0  0  0  0  0  0  0
   -8.4240    6.1170    8.7580 C   0  0  0  0  0  0  0  0  0  0  0  0
   -9.3950    6.3570    9.7450 N   0  0  0  0  0  0  0  0  0  0  0  0
  -10.5620    5.6840    9.7600 C   0  0  0  0  0  0  0  0  0  0  0  0
  -11.5770    5.6820   10.5960 N   0  0  0  0  0  0  0  0  0  0  0  0
  -12.4690    4.7490   10.1080 N   0  0  0  0  0  0  0  0  0  0  0  0
  -12.0160    4.1880    8.9920 N   0  0  0  0  0  0  0  0  0  0  0  0
  -10.8400    4.7900    8.7610 N   0  0  0  0  0  0  0  0  0  0  0  0
   -9.9950    4.4790    7.6090 C   0  0  0  0  0  0  0  0  0  0  0  0
   -8.6630    5.2070    7.7200 C   0  0  0  0  0  0  0  0  0  0  0  0
  -10.7490    4.8610    6.3730 C   0  0  0  0  0  0  0  0  0  0  0  0
  -11.0350    6.2020    6.1170 C   0  0  0  0  0  0  0  0  0  0  0  0
  -11.7370    6.5580    4.9650 C   0  0  0  0  0  0  0  0  0  0  0  0
  -12.1550    5.5730    4.0710 C   0  0  0  0  0  0  0  0  0  0  0  0
  -11.8700    4.2310    4.3270 C   0  0  0  0  0  0  0  0  0  0  0  0
  -11.1660    3.8760    5.4790 C   0  0  0  0  0  0  0  0  0  0  0  0
  -12.0160    7.8660    4.7150 O   0  0  0  0  0  0  0  0  0  0  0  0
   -6.8990    7.6510    9.7710 O   0  0  0  0  0  0  0  0  0  0  0  0
   -6.8102    3.1381    5.3456 N   0  0  0  0  0  0  0  0  0  0  0  0
   -7.2452    2.4541    4.2987 N   0  0  0  0  0  0  0  0  0  0  0  0
   -8.4711    2.9243    4.0063 C   0  0  0  0  0  0  0  0  0  0  0  0
   -9.4359    2.3399    2.6067 S   0  0  0  0  0  0  0  0  0  0  0  0
   -8.5015    3.3035    1.3683 C   0  0  0  0  0  0  0  0  0  0  0  0
   -8.8932    4.7473    1.4132 C   0  0  0  0  0  0  0  0  0  0  0  0
   -7.9705    5.7367    1.8692 N   0  0  0  0  0  0  0  0  0  0  0  0
  -10.0486    5.0922    1.0476 O   0  0  0  0  0  0  0  0  0  0  0  0
   -8.8483    3.8997    4.8596 N   0  0  0  0  0  0  0  0  0  0  0  0
  -10.0927    4.6759    4.8367 C   0  0  0  0  0  0  0  0  0  0  0  0
  -11.2606    3.8423    5.3567 C   0  0  0  0  0  0  0  0  0  0  0  0
  1  3  4  0
  1 14  4  0
  1  2  1  0
  3  4  4  0
  4  5  4  0
  5  6  4  0
  5 22  1  0
  6  7  1  0
  6 14  4  0
  7  8  1  0
  8  9  4  0
  8 12  4  0
  9 10  4  0
 10 11  4  0
 11 12  4  0
 12 13  1  0
 13 14  1  0
 13 15  1  6
 15 16  4  0
 15 20  4  0
 16 17  4  0
 17 18  4  0
 17 21  1  0
 18 19  4  0
 19 20  4  0
 23 24  4  0
 24 25  4  0
 25 26  1  0
 26 27  1  0
 27 28  1  0
 28 29  1  0
 28 30  2  0
 25 31  4  0
 31 32  1  0
 32 33  1  0
  2 23  4  0
  2 31  4  0
M  END
$$$$

     RDKit          3D

 33 37  0  0  0  0  0  0  0  0999 V2000
   -7.6410    4.9930    6.8080 C   0  0  0  0  0  0  0  0  0  1  0  0
   -7.7310    4.0530    5.7140 C   0  0  0  0  0  0  0  0  0  2  0  0
   -6.4520    5.6300    6.8680 N   0  0  0  0  0  0  0  0  0  0  0  0
   -6.2260    6.5240    7.8670 N   0  0  0  0  0  0  0  0  0  0  0  0
   -7.1930    6.7500    8.7820 C   0  0  0  0  0  0  0  0  0  0  0  0
   -8.4240    6.1170    8.7580 C   0  0  0  0  0  0  0  0  0  0  0  0
   -9.3950    6.3570    9.7450 N   0  0  0  0  0  0  0  0  0  0  0  0
  -10.5620    5.6840    9.7600 C   0  0  0  0  0  0  0  0  0  0  0  0
  -11.5770    5.6820   10.5960 N   0  0  0  0  0  0  0  0  0  0  0  0
  -12.4690    4.7490   10.1080 N   0  0  0  0  0  0  0  0  0  0  0  0
  -12.0160    4.1880    8.9920 N   0  0  0  0  0  0  0  0  0  0  0  0
  -10.8400    4.7900    8.7610 N   0  0  0  0  0  0  0  0  0  0  0  0
   -9.9950    4.4790    7.6090 C   0  0  0  0  0  0  0  0  0  0  0  0
   -8.6630    5.2070    7.7200 C   0  0  0  0  0  0  0  0  0  0  0  0
  -10.7490    4.8610    6.3730 C   0  0  0  0  0  0  0  0  0  0  0  0
  -11.0350    6.2020    6.1170 C   0  0  0  0  0  0  0  0  0  0  0  0
  -11.7370    6.5580    4.9650 C   0  0  0  0  0  0  0  0  0  0  0  0
  -12.1550    5.5730    4.0710 C   0  0  0  0  0  0  0  0  0  0  0  0
  -11.8700    4.2310    4.3270 C   0  0  0  0  0  0  0  0  0  0  0  0
  -11.1660    3.8760    5.4790 C   0  0  0  0  0  0  0  0  0  0  0  0
  -12.0160    7.8660    4.7150 O   0  0  0  0  0  0  0  0  0  0  0  0
   -6.8990    7.6510    9.7710 O   0  0  0  0  0  0  0  0  0  0  0  0
   -6.8664    3.0572    5.4202 N   0  0  0  0  0  0  0  0  0  0  0  0
   -7.3037    2.3800    4.3698 N   0  0  0  0  0  0  0  0  0  0  0  0
   -8.4727    2.9363    4.0034 C   0  0  0  0  0  0  0  0  0  0  0  0
   -9.4462    2.3423    2.6138 S   0  0  0  0  0  0  0  0  0  0  0  0
   -8.5872    3.3654    1.3704 C   0  0  0  0  0  0  0  0  0  0  0  0
   -7.2083    2.8417    1.1111 C   0  0  0  0  0  0  0  0  0  0  0  0
   -7.0215    1.5383    0.5601 N   0  0  0  0  0  0  0  0  0  0  0  0
   -6.2059    3.5584    1.3732 O   0  0  0  0  0  0  0  0  0  0  0  0
   -8.8122    3.9630    4.8115 N   0  0  0  0  0  0  0  0  0  0  0  0
   -9.9478    4.8825    4.6684 C   0  0  0  0  0  0  0  0  0  0  0  0
   -9.4804    6.2621    4.2131 C   0  0  0  0  0  0  0  0  0  0  0  0
  1  3  4  0
  1 14  4  0
  1  2  1  0
  3  4  4  0
  4  5  4  0
  5  6  4  0
  5 22  1  0
  6  7  1  0
  6 14  4  0
  7  8  1  0
  8  9  4  0
  8 12  4  0
  9 10  4  0
 10 11  4  0
 11 12  4  0
 12 13  1  0
 13 14  1  0
 13 15  1  6
 15 16  4  0
 15 20  4  0
 16 17  4  0
 17 18  4  0
 17 21  1  0
 18 19  4  0
 19 20  4  0
 23 24  4  0
 24 25  4  0
 25 26  1  0
 26 27  1  0
 27 28  1  0
 28 29  1  0
 28 30  2  0
 25 31  4  0
 31 32  1  0
 32 33  1  0
  2 23  4  0
  2 31  4  0
M  END
$$$$

     RDKit          3D

 33 37  0  0  0  0  0  0  0  0999 V2000
   -7.6410    4.9930    6.8080 C   0  0  0  0  0  0  0  0  0  1  0  0
   -7.7310    4.0530    5.7140 C   0  0  0  0  0  0  0  0  0  2  0  0
   -6.4520    5.6300    6.8680 N   0  0  0  0  0  0  0  0  0  0  0  0
   -6.2260    6.5240    7.8670 N   0  0  0  0  0  0  0  0  0  0  0  0
   -7.1930    6.7500    8.7820 C   0  0  0  0  0  0  0  0  0  0  0  0
   -8.4240    6.1170    8.7580 C   0  0  0  0  0  0  0  0  0  0  0  0
   -9.3950    6.3570    9.7450 N   0  0  0  0  0  0  0  0  0  0  0  0
  -10.5620    5.6840    9.7600 C   0  0  0  0  0  0  0  0  0  0  0  0
  -11.5770    5.6820   10.5960 N   0  0  0  0  0  0  0  0  0  0  0  0
  -12.4690    4.7490   10.1080 N   0  0  0  0  0  0  0  0  0  0  0  0
  -12.0160    4.1880    8.9920 N   0  0  0  0  0  0  0  0  0  0  0  0
  -10.8400    4.7900    8.7610 N   0  0  0  0  0  0  0  0  0  0  0  0
   -9.9950    4.4790    7.6090 C   0  0  0  0  0  0  0  0  0  0  0  0
   -8.6630    5.2070    7.7200 C   0  0  0  0  0  0  0  0  0  0  0  0
  -10.7490    4.8610    6.3730 C   0  0  0  0  0  0  0  0  0  0  0  0
  -11.0350    6.2020    6.1170 C   0  0  0  0  0  0  0  0  0  0  0  0
  -11.7370    6.5580    4.9650 C   0  0  0  0  0  0  0  0  0  0  0  0
  -12.1550    5.5730    4.0710 C   0  0  0  0  0  0  0  0  0  0  0  0
  -11.8700    4.2310    4.3270 C   0  0  0  0  0  0  0  0  0  0  0  0
  -11.1660    3.8760    5.4790 C   0  0  0  0  0  0  0  0  0  0  0  0
  -12.0160    7.8660    4.7150 O   0  0  0  0  0  0  0  0  0  0  0  0
   -6.8990    7.6510    9.7710 O   0  0  0  0  0  0  0  0  0  0  0  0
   -6.8627    3.0643    5.4083 N   0  0  0  0  0  0  0  0  0  0  0  0
   -7.2913    2.4063    4.3419 N   0  0  0  0  0  0  0  0  0  0  0  0
   -8.4628    2.9630    3.9844 C   0  0  0  0  0  0  0  0  0  0  0  0
   -9.3932    2.4523    2.5357 S   0  0  0  0  0  0  0  0  0  0  0  0
  -10.4365    1.2651    3.4488 C   0  0  0  0  0  0  0  0  0  0  0  0
   -9.6463    0.0540    3.8390 C   0  0  0  0  0  0  0  0  0  0  0  0
   -9.0864   -0.7973    2.8392 N   0  0  0  0  0  0  0  0  0  0  0  0
   -9.4803   -0.2204    5.0573 O   0  0  0  0  0  0  0  0  0  0  0  0
   -8.8122    3.9685    4.8125 N   0  0  0  0  0  0  0  0  0  0  0  0
   -9.8919    4.9413    4.6177 C   0  0  0  0  0  0  0  0  0  0  0  0
   -9.3940    6.1295    3.8035 C   0  0  0  0  0  0  0  0  0  0  0  0
  1  3  4  0
  1 14  4  0
  1  2  1  0
  3  4  4  0
  4  5  4  0
  5  6  4  0
  5 22  1  0
  6  7  1  0
  6 14  4  0
  7  8  1  0
  8  9  4  0
  8 12  4  0
  9 10  4  0
 10 11  4  0
 11 12  4  0
 12 13  1  0
 13 14  1  0
 13 15  1  6
 15 16  4  0
 15 20  4  0
 16 17  4  0
 17 18  4  0
 17 21  1  0
 18 19  4  0
 19 20  4  0
 23 24  4  0
 24 25  4  0
 25 26  1  0
 26 27  1  0
 27 28  1  0
 28 29  1  0
 28 30  2  0
 25 31  4  0
 31 32  1  0
 32 33  1  0
  2 23  4  0
  2 31  4  0
M  END
$$$$

     RDKit          3D

 33 37  0  0  0  0  0  0  0  0999 V2000
   -7.6410    4.9930    6.8080 C   0  0  0  0  0  0  0  0  0  1  0  0
   -7.7310    4.0530    5.7140 C   0  0  0  0  0  0  0  0  0  2  0  0
   -6.4520    5.6300    6.8680 N   0  0  0  0  0  0  0  0  0  0  0  0
   -6.2260    6.5240    7.8670 N   0  0  0  0  0  0  0  0  0  0  0  0
   -7.1930    6.7500    8.7820 C   0  0  0  0  0  0  0  0  0  0  0  0
   -8.4240    6.1170    8.7580 C   0  0  0  0  0  0  0  0  0  0  0  0
   -9.3950    6.3570    9.7450 N   0  0  0  0  0  0  0  0  0  0  0  0
  -10.5620    5.6840    9.7600 C   0  0  0  0  0  0  0  0  0  0  0  0
  -11.5770    5.6820   10.5960 N   0  0  0  0  0  0  0  0  0  0  0  0
  -12.4690    4.7490   10.1080 N   0  0  0  0  0  0  0  0  0  0  0  0
  -12.0160    4.1880    8.9920 N   0  0  0  0  0  0  0  0  0  0  0  0
  -10.8400    4.7900    8.7610 N   0  0  0  0  0  0  0  0  0  0  0  0
   -9.9950    4.4790    7.6090 C   0  0  0  0  0  0  0  0  0  0  0  0
   -8.6630    5.2070    7.7200 C   0  0  0  0  0  0  0  0  0  0  0  0
  -10.7490    4.8610    6.3730 C   0  0  0  0  0  0  0  0  0  0  0  0
  -11.0350    6.2020    6.1170 C   0  0  0  0  0  0  0  0  0  0  0  0
  -11.7370    6.5580    4.9650 C   0  0  0  0  0  0  0  0  0  0  0  0
  -12.1550    5.5730    4.0710 C   0  0  0  0  0  0  0  0  0  0  0  0
  -11.8700    4.2310    4.3270 C   0  0  0  0  0  0  0  0  0  0  0  0
  -11.1660    3.8760    5.4790 C   0  0  0  0  0  0  0  0  0  0  0  0
  -12.0160    7.8660    4.7150 O   0  0  0  0  0  0  0  0  0  0  0  0
   -6.8990    7.6510    9.7710 O   0  0  0  0  0  0  0  0  0  0  0  0
   -6.8650    3.0593    5.4178 N   0  0  0  0  0  0  0  0  0  0  0  0
   -7.3027    2.3816    4.3676 N   0  0  0  0  0  0  0  0  0  0  0  0
   -8.4740    2.9353    4.0046 C   0  0  0  0  0  0  0  0  0  0  0  0
   -9.4460    2.3435    2.6159 S   0  0  0  0  0  0  0  0  0  0  0  0
   -8.5431    3.3475    1.3933 C   0  0  0  0  0  0  0  0  0  0  0  0
   -9.1092    3.1090    0.0290 C   0  0  0  0  0  0  0  0  0  0  0  0
   -8.3120    2.5168   -0.9970 N   0  0  0  0  0  0  0  0  0  0  0  0
  -10.2988    3.4415   -0.2201 O   0  0  0  0  0  0  0  0  0  0  0  0
   -8.8138    3.9613    4.8135 N   0  0  0  0  0  0  0  0  0  0  0  0
   -9.9476    4.8826    4.6681 C   0  0  0  0  0  0  0  0  0  0  0  0
   -9.4776    6.2565    4.1992 C   0  0  0  0  0  0  0  0  0  0  0  0
  1  3  4  0
  1 14  4  0
  1  2  1  0
  3  4  4  0
  4  5  4  0
  5  6  4  0
  5 22  1  0
  6  7  1  0
  6 14  4  0
  7  8  1  0
  8  9  4  0
  8 12  4  0
  9 10  4  0
 10 11  4  0
 11 12  4  0
 12 13  1  0
 13 14  1  0
 13 15  1  6
 15 16  4  0
 15 20  4  0
 16 17  4  0
 17 18  4  0
 17 21  1  0
 18 19  4  0
 19 20  4  0
 23 24  4  0
 24 25  4  0
 25 26  1  0
 26 27  1  0
 27 28  1  0
 28 29  1  0
 28 30  2  0
 25 31  4  0
 31 32  1  0
 32 33  1  0
  2 23  4  0
  2 31  4  0
M  END
$$$$

     RDKit          3D

 51 59  0  0  0  0  0  0  0  0999 V2000
   -7.6410    4.9930    6.8080 C   0  0  0  0  0  0  0  0  0  1  0  0
   -7.7310    4.0530    5.7140 C   0  0  0  0  0  0  0  0  0  2  0  0
   -6.4520    5.6300    6.8680 N   0  0  0  0  0  0  0  0  0  0  0  0
   -6.2260    6.5240    7.8670 N   0  0  0  0  0  0  0  0  0  0  0  0
   -7.1930    6.7500    8.7820 C   0  0  0  0  0  0  0  0  0  0  0  0
   -8.4240    6.1170    8.7580 C   0  0  0  0  0  0  0  0  0  0  0  0
   -9.3950    6.3570    9.7450 N   0  0  0  0  0  0  0  0  0  0  0  0
  -10.5620    5.6840    9.7600 C   0  0  0  0  0  0  0  0  0  0  0  0
  -11.5770    5.6820   10.5960 N   0  0  0  0  0  0  0  0  0  0  0  0
  -12.4690    4.7490   10.1080 N   0  0  0  0  0  0  0  0  0  0  0  0
  -12.0160    4.1880    8.9920 N   0  0  0  0  0  0  0  0  0  0  0  0
  -10.8400    4.7900    8.7610 N   0  0  0  0  0  0  0  0  0  0  0  0
   -9.9950    4.4790    7.6090 C   0  0  0  0  0  0  0  0  0  0  0  0
   -8.6630    5.2070    7.7200 C   0  0  0  0  0  0  0  0  0  0  0  0
  -10.7490    4.8610    6.3730 C   0  0  0  0  0  0  0  0  0  0  0  0
  -11.0350    6.2020    6.1170 C   0  0  0  0  0  0  0  0  0  0  0  0
  -11.7370    6.5580    4.9650 C   0  0  0  0  0  0  0  0  0  0  0  0
  -12.1550    5.5730    4.0710 C   0  0  0  0  0  0  0  0  0  0  0  0
  -11.8700    4.2310    4.3270 C   0  0  0  0  0  0  0  0  0  0  0  0
  -11.1660    3.8760    5.4790 C   0  0  0  0  0  0  0  0  0  0  0  0
  -12.0160    7.8660    4.7150 O   0  0  0  0  0  0  0  0  0  0  0  0
   -6.8990    7.6510    9.7710 O   0  0  0  0  0  0  0  0  0  0  0  0
   -6.8628    3.0043    5.6035 N   0  0  0  0  0  0  0  0  0  0  0  0
   -6.9812    2.0468    4.6568 C   0  0  0  0  0  0  0  0  0  0  0  0
   -7.9900    2.0440    3.7326 C   0  0  0  0  0  0  0  0  0  0  0  0
   -7.6985    0.9392    2.9251 C   0  0  0  0  0  0  0  0  0  0  0  0
   -8.4490    0.4426    1.7175 C   0  0  0  0  0  0  0  0  0  0  0  0
   -7.7742   -0.7473    1.0808 C   0  0  0  0  0  0  0  0  0  0  0  0
   -8.3001   -2.0404    1.2454 C   0  0  0  0  0  0  0  0  0  0  0  0
   -7.6580   -3.1407    0.6676 C   0  0  0  0  0  0  0  0  0  0  0  0
   -6.4891   -2.9587   -0.0773 C   0  0  0  0  0  0  0  0  0  0  0  0
   -5.9599   -1.6762   -0.2452 C   0  0  0  0  0  0  0  0  0  0  0  0
   -6.5978   -0.5737    0.3311 C   0  0  0  0  0  0  0  0  0  0  0  0
   -6.5680    0.3485    3.3869 N   0  0  0  0  0  0  0  0  0  0  0  0
   -6.1366    1.0208    4.4450 N   0  0  0  0  0  0  0  0  0  0  0  0
   -4.9361    0.6841    5.1654 C   0  0  0  0  0  0  0  0  0  0  0  0
   -4.8062    0.9575    6.5406 C   0  0  0  0  0  0  0  0  0  0  0  0
   -3.6309    0.6222    7.2195 C   0  0  0  0  0  0  0  0  0  0  0  0
   -2.5777    0.0083    6.5375 C   0  0  0  0  0  0  0  0  0  0  0  0
   -2.7037   -0.2871    5.1789 C   0  0  0  0  0  0  0  0  0  0  0  0
   -3.8772    0.0457    4.4957 C   0  0  0  0  0  0  0  0  0  0  0  0
   -8.9754    3.0520    3.7485 C   0  0  0  0  0  0  0  0  0  0  0  0
  -10.0407    3.1014    2.8350 C   0  0  0  0  0  0  0  0  0  0  0  0
  -10.9841    4.1468    2.8678 C   0  0  0  0  0  0  0  0  0  0  0  0
  -12.0515    4.1842    1.9557 O   0  0  0  0  0  0  0  0  0  0  0  0
  -12.2897    3.2232    0.9309 C   0  0  0  0  0  0  0  0  0  0  0  0
  -10.8473    5.1715    3.8339 C   0  0  0  0  0  0  0  0  0  0  0  0
  -11.7196    6.2707    3.9460 O   0  0  0  0  0  0  0  0  0  0  0  0
  -12.8459    6.5470    3.1206 C   0  0  0  0  0  0  0  0  0  0  0  0
   -9.7912    5.1201    4.7480 C   0  0  0  0  0  0  0  0  0  0  0  0
   -8.8611    4.0644    4.7449 C   0  0  0  0  0  0  0  0  0  0  0  0
  1  3  4  0
  1 14  4  0
  1  2  1  0
  3  4  4  0
  4  5  4  0
  5  6  4  0
  5 22  1  0
  6  7  1  0
  6 14  4  0
  7  8  1  0
  8  9  4  0
  8 12  4  0
  9 10  4  0
 10 11  4  0
 11 12  4  0
 12 13  1  0
 13 14  1  0
 13 15  1  6
 15 16  4  0
 15 20  4  0
 16 17  4  0
 17 18  4  0
 17 21  1  0
 18 19  4  0
 19 20  4  0
 23 24  4  0
 24 25  4  0
 25 26  4  0
 26 27  1  0
 27 28  1  0
 28 29  4  0
 29 30  4  0
 30 31  4  0
 31 32  4  0
 32 33  4  0
 26 34  4  0
 34 35  4  0
 35 36  1  0
 36 37  4  0
 37 38  4  0
 38 39  4  0
 39 40  4  0
 40 41  4  0
 25 42  4  0
 42 43  4  0
 43 44  4  0
 44 45  1  0
 45 46  1  0
 44 47  4  0
 47 48  1  0
 48 49  1  0
 47 50  4  0
 50 51  4  0
 35 24  4  0
 41 36  4  0
 51 42  4  0
 33 28  4  0
  2 23  4  0
  2 51  4  0
M  END
$$$$

     RDKit          3D

 51 59  0  0  0  0  0  0  0  0999 V2000
   -7.6410    4.9930    6.8080 C   0  0  0  0  0  0  0  0  0  1  0  0
   -7.7310    4.0530    5.7140 C   0  0  0  0  0  0  0  0  0  2  0  0
   -6.4520    5.6300    6.8680 N   0  0  0  0  0  0  0  0  0  0  0  0
   -6.2260    6.5240    7.8670 N   0  0  0  0  0  0  0  0  0  0  0  0
   -7.1930    6.7500    8.7820 C   0  0  0  0  0  0  0  0  0  0  0  0
   -8.4240    6.1170    8.7580 C   0  0  0  0  0  0  0  0  0  0  0  0
   -9.3950    6.3570    9.7450 N   0  0  0  0  0  0  0  0  0  0  0  0
  -10.5620    5.6840    9.7600 C   0  0  0  0  0  0  0  0  0  0  0  0
  -11.5770    5.6820   10.5960 N   0  0  0  0  0  0  0  0  0  0  0  0
  -12.4690    4.7490   10.1080 N   0  0  0  0  0  0  0  0  0  0  0  0
  -12.0160    4.1880    8.9920 N   0  0  0  0  0  0  0  0  0  0  0  0
  -10.8400    4.7900    8.7610 N   0  0  0  0  0  0  0  0  0  0  0  0
   -9.9950    4.4790    7.6090 C   0  0  0  0  0  0  0  0  0  0  0  0
   -8.6630    5.2070    7.7200 C   0  0  0  0  0  0  0  0  0  0  0  0
  -10.7490    4.8610    6.3730 C   0  0  0  0  0  0  0  0  0  0  0  0
  -11.0350    6.2020    6.1170 C   0  0  0  0  0  0  0  0  0  0  0  0
  -11.7370    6.5580    4.9650 C   0  0  0  0  0  0  0  0  0  0  0  0
  -12.1550    5.5730    4.0710 C   0  0  0  0  0  0  0  0  0  0  0  0
  -11.8700    4.2310    4.3270 C   0  0  0  0  0  0  0  0  0  0  0  0
  -11.1660    3.8760    5.4790 C   0  0  0  0  0  0  0  0  0  0  0  0
  -12.0160    7.8660    4.7150 O   0  0  0  0  0  0  0  0  0  0  0  0
   -6.8990    7.6510    9.7710 O   0  0  0  0  0  0  0  0  0  0  0  0
   -6.8636    3.0066    5.6040 N   0  0  0  0  0  0  0  0  0  0  0  0
   -6.9727    2.0526    4.6535 C   0  0  0  0  0  0  0  0  0  0  0  0
   -8.0189    2.0028    3.7658 C   0  0  0  0  0  0  0  0  0  0  0  0
   -7.7935    0.7992    3.0692 C   0  0  0  0  0  0  0  0  0  0  0  0
   -8.6394    0.0706    2.0618 C   0  0  0  0  0  0  0  0  0  0  0  0
   -9.5818   -0.8845    2.7503 C   0  0  0  0  0  0  0  0  0  0  0  0
   -9.2732   -2.2556    2.8159 C   0  0  0  0  0  0  0  0  0  0  0  0
  -10.1348   -3.1445    3.4657 C   0  0  0  0  0  0  0  0  0  0  0  0
  -11.3102   -2.6746    4.0562 C   0  0  0  0  0  0  0  0  0  0  0  0
  -11.6238   -1.3141    4.0011 C   0  0  0  0  0  0  0  0  0  0  0  0
  -10.7644   -0.4218    3.3531 C   0  0  0  0  0  0  0  0  0  0  0  0
   -6.6772    0.2124    3.5649 N   0  0  0  0  0  0  0  0  0  0  0  0
   -6.1708    0.9829    4.5148 N   0  0  0  0  0  0  0  0  0  0  0  0
   -5.0025    0.6379    5.2826 C   0  0  0  0  0  0  0  0  0  0  0  0
   -4.6810   -0.7143    5.4980 C   0  0  0  0  0  0  0  0  0  0  0  0
   -3.5500   -1.0640    6.2415 C   0  0  0  0  0  0  0  0  0  0  0  0
   -2.7233   -0.0693    6.7683 C   0  0  0  0  0  0  0  0  0  0  0  0
   -3.0220    1.2770    6.5458 C   0  0  0  0  0  0  0  0  0  0  0  0
   -4.1515    1.6320    5.8021 C   0  0  0  0  0  0  0  0  0  0  0  0
   -8.9909    3.0330    3.7655 C   0  0  0  0  0  0  0  0  0  0  0  0
  -10.0416    3.1119    2.8375 C   0  0  0  0  0  0  0  0  0  0  0  0
  -10.9793    4.1618    2.8708 C   0  0  0  0  0  0  0  0  0  0  0  0
  -12.0388    4.2123    1.9497 O   0  0  0  0  0  0  0  0  0  0  0  0
  -12.2938    3.2426    0.9371 C   0  0  0  0  0  0  0  0  0  0  0  0
  -10.8418    5.1801    3.8412 C   0  0  0  0  0  0  0  0  0  0  0  0
  -11.7142    6.2780    3.9618 O   0  0  0  0  0  0  0  0  0  0  0  0
  -12.8830    6.5212    3.1862 C   0  0  0  0  0  0  0  0  0  0  0  0
   -9.7819    5.1249    4.7485 C   0  0  0  0  0  0  0  0  0  0  0  0
   -8.8616    4.0600    4.7485 C   0  0  0  0  0  0  0  0  0  0  0  0
  1  3  4  0
  1 14  4  0
  1  2  1  0
  3  4  4  0
  4  5  4  0
  5  6  4  0
  5 22  1  0
  6  7  1  0
  6 14  4  0
  7  8  1  0
  8  9  4  0
  8 12  4  0
  9 10  4  0
 10 11  4  0
 11 12  4  0
 12 13  1  0
 13 14  1  0
 13 15  1  6
 15 16  4  0
 15 20  4  0
 16 17  4  0
 17 18  4  0
 17 21  1  0
 18 19  4  0
 19 20  4  0
 23 24  4  0
 24 25  4  0
 25 26  4  0
 26 27  1  0
 27 28  1  0
 28 29  4  0
 29 30  4  0
 30 31  4  0
 31 32  4  0
 32 33  4  0
 26 34  4  0
 34 35  4  0
 35 36  1  0
 36 37  4  0
 37 38  4  0
 38 39  4  0
 39 40  4  0
 40 41  4  0
 25 42  4  0
 42 43  4  0
 43 44  4  0
 44 45  1  0
 45 46  1  0
 44 47  4  0
 47 48  1  0
 48 49  1  0
 47 50  4  0
 50 51  4  0
 35 24  4  0
 41 36  4  0
 51 42  4  0
 33 28  4  0
  2 23  4  0
  2 51  4  0
M  END
$$$$

     RDKit          3D

 47 53  0  0  0  0  0  0  0  0999 V2000
   -7.6410    4.9930    6.8080 C   0  0  0  0  0  0  0  0  0  1  0  0
   -7.7310    4.0530    5.7140 C   0  0  0  0  0  0  0  0  0  2  0  0
   -6.4520    5.6300    6.8680 N   0  0  0  0  0  0  0  0  0  0  0  0
   -6.2260    6.5240    7.8670 N   0  0  0  0  0  0  0  0  0  0  0  0
   -7.1930    6.7500    8.7820 C   0  0  0  0  0  0  0  0  0  0  0  0
   -8.4240    6.1170    8.7580 C   0  0  0  0  0  0  0  0  0  0  0  0
   -9.3950    6.3570    9.7450 N   0  0  0  0  0  0  0  0  0  0  0  0
  -10.5620    5.6840    9.7600 C   0  0  0  0  0  0  0  0  0  0  0  0
  -11.5770    5.6820   10.5960 N   0  0  0  0  0  0  0  0  0  0  0  0
  -12.4690    4.7490   10.1080 N   0  0  0  0  0  0  0  0  0  0  0  0
  -12.0160    4.1880    8.9920 N   0  0  0  0  0  0  0  0  0  0  0  0
  -10.8400    4.7900    8.7610 N   0  0  0  0  0  0  0  0  0  0  0  0
   -9.9950    4.4790    7.6090 C   0  0  0  0  0  0  0  0  0  0  0  0
   -8.6630    5.2070    7.7200 C   0  0  0  0  0  0  0  0  0  0  0  0
  -10.7490    4.8610    6.3730 C   0  0  0  0  0  0  0  0  0  0  0  0
  -11.0350    6.2020    6.1170 C   0  0  0  0  0  0  0  0  0  0  0  0
  -11.7370    6.5580    4.9650 C   0  0  0  0  0  0  0  0  0  0  0  0
  -12.1550    5.5730    4.0710 C   0  0  0  0  0  0  0  0  0  0  0  0
  -11.8700    4.2310    4.3270 C   0  0  0  0  0  0  0  0  0  0  0  0
  -11.1660    3.8760    5.4790 C   0  0  0  0  0  0  0  0  0  0  0  0
  -12.0160    7.8660    4.7150 O   0  0  0  0  0  0  0  0  0  0  0  0
   -6.8990    7.6510    9.7710 O   0  0  0  0  0  0  0  0  0  0  0  0
   -6.8612    3.0615    5.4135 N   0  0  0  0  0  0  0  0  0  0  0  0
   -7.3456    2.3444    4.4119 N   0  0  0  0  0  0  0  0  0  0  0  0
   -8.5466    2.8483    4.0847 C   0  0  0  0  0  0  0  0  0  0  0  0
   -9.4587    2.2869    2.8397 S   0  0  0  0  0  0  0  0  0  0  0  0
   -8.8608    3.9054    4.8654 N   0  0  0  0  0  0  0  0  0  0  0  0
   -9.9964    4.8255    4.7098 C   0  0  0  0  0  0  0  0  0  0  0  0
   -9.8482    5.6893    3.4880 C   0  0  0  0  0  0  0  0  0  0  0  0
   -8.7885    5.6544    2.8050 O   0  0  0  0  0  0  0  0  0  0  0  0
  -10.9271    6.5517    3.0996 N   0  0  0  0  0  0  0  0  0  0  0  0
  -10.9237    7.2757    1.8243 C   0  0  0  0  0  0  0  0  0  0  0  0
  -12.2951    7.8509    1.5327 C   0  0  0  0  0  0  0  0  0  0  0  0
  -13.0325    7.4007    0.4253 C   0  0  0  0  0  0  0  0  0  0  0  0
  -14.2897    7.9421    0.1437 C   0  0  0  0  0  0  0  0  0  0  0  0
  -14.8330    8.9417    0.9647 C   0  0  0  0  0  0  0  0  0  0  0  0
  -16.1646    9.5652    0.6238 C   0  0  0  0  0  0  0  0  0  0  0  0
  -16.0633   10.5427   -0.5694 C   0  0  0  0  0  0  0  0  0  0  0  0
  -15.1237   11.7178   -0.2668 C   0  0  0  0  0  0  0  0  0  0  0  0
  -17.4535   11.0704   -0.9437 C   0  0  0  0  0  0  0  0  0  0  0  0
  -14.1033    9.3892    2.0745 C   0  0  0  0  0  0  0  0  0  0  0  0
  -12.8508    8.8409    2.3625 C   0  0  0  0  0  0  0  0  0  0  0  0
   -9.8858    8.3686    1.8225 C   0  0  0  0  0  0  0  0  0  0  0  0
   -9.3001    8.9183    0.6870 C   0  0  0  0  0  0  0  0  0  0  0  0
   -8.4045    9.9554    0.9728 C   0  0  0  0  0  0  0  0  0  0  0  0
   -8.2877   10.2346    2.3302 C   0  0  0  0  0  0  0  0  0  0  0  0
   -9.3016    9.1930    3.1735 S   0  0  0  0  0  0  0  0  0  0  0  0
  1  3  4  0
  1 14  4  0
  1  2  1  0
  3  4  4  0
  4  5  4  0
  5  6  4  0
  5 22  1  0
  6  7  1  0
  6 14  4  0
  7  8  1  0
  8  9  4  0
  8 12  4  0
  9 10  4  0
 10 11  4  0
 11 12  4  0
 12 13  1  0
 13 14  1  0
 13 15  1  6
 15 16  4  0
 15 20  4  0
 16 17  4  0
 17 18  4  0
 17 21  1  0
 18 19  4  0
 19 20  4  0
 23 24  4  0
 24 25  4  0
 25 26  2  0
 25 27  4  0
 27 28  1  0
 28 29  1  0
 29 30  2  0
 29 31  1  0
 31 32  1  0
 32 33  1  0
 33 34  4  0
 34 35  4  0
 35 36  4  0
 36 37  1  0
 37 38  1  0
 38 39  1  0
 38 40  1  0
 36 41  4  0
 41 42  4  0
 32 43  1  0
 43 44  4  0
 44 45  4  0
 45 46  4  0
 46 47  4  0
 42 33  4  0
 47 43  4  0
  2 23  4  0
  2 27  4  0
M  END
$$$$

     RDKit          3D

 44 50  0  0  0  0  0  0  0  0999 V2000
   -7.6410    4.9930    6.8080 C   0  0  0  0  0  0  0  0  0  1  0  0
   -7.7310    4.0530    5.7140 C   0  0  0  0  0  0  0  0  0  2  0  0
   -6.4520    5.6300    6.8680 N   0  0  0  0  0  0  0  0  0  0  0  0
   -6.2260    6.5240    7.8670 N   0  0  0  0  0  0  0  0  0  0  0  0
   -7.1930    6.7500    8.7820 C   0  0  0  0  0  0  0  0  0  0  0  0
   -8.4240    6.1170    8.7580 C   0  0  0  0  0  0  0  0  0  0  0  0
   -9.3950    6.3570    9.7450 N   0  0  0  0  0  0  0  0  0  0  0  0
  -10.5620    5.6840    9.7600 C   0  0  0  0  0  0  0  0  0  0  0  0
  -11.5770    5.6820   10.5960 N   0  0  0  0  0  0  0  0  0  0  0  0
  -12.4690    4.7490   10.1080 N   0  0  0  0  0  0  0  0  0  0  0  0
  -12.0160    4.1880    8.9920 N   0  0  0  0  0  0  0  0  0  0  0  0
  -10.8400    4.7900    8.7610 N   0  0  0  0  0  0  0  0  0  0  0  0
   -9.9950    4.4790    7.6090 C   0  0  0  0  0  0  0  0  0  0  0  0
   -8.6630    5.2070    7.7200 C   0  0  0  0  0  0  0  0  0  0  0  0
  -10.7490    4.8610    6.3730 C   0  0  0  0  0  0  0  0  0  0  0  0
  -11.0350    6.2020    6.1170 C   0  0  0  0  0  0  0  0  0  0  0  0
  -11.7370    6.5580    4.9650 C   0  0  0  0  0  0  0  0  0  0  0  0
  -12.1550    5.5730    4.0710 C   0  0  0  0  0  0  0  0  0  0  0  0
  -11.8700    4.2310    4.3270 C   0  0  0  0  0  0  0  0  0  0  0  0
  -11.1660    3.8760    5.4790 C   0  0  0  0  0  0  0  0  0  0  0  0
  -12.0160    7.8660    4.7150 O   0  0  0  0  0  0  0  0  0  0  0  0
   -6.8990    7.6510    9.7710 O   0  0  0  0  0  0  0  0  0  0  0  0
   -6.8163    3.0020    5.5030 C   0  0  0  0  0  0  0  0  0  0  0  0
   -6.9395    2.0516    4.4733 C   0  0  0  0  0  0  0  0  0  0  0  0
   -5.9482    1.0201    4.2976 N   0  0  0  0  0  0  0  0  0  0  0  0
   -4.9057    1.0184    4.9858 O   0  0  0  0  0  0  0  0  0  0  0  0
   -6.1084    0.0482    3.3340 O   0  0  0  0  0  0  0  0  0  0  0  0
   -8.0485    2.1212    3.6164 C   0  0  0  0  0  0  0  0  0  0  0  0
   -9.0169    3.1119    3.7866 C   0  0  0  0  0  0  0  0  0  0  0  0
   -8.9025    4.0576    4.8241 C   0  0  0  0  0  0  0  0  0  0  0  0
   -9.8656    5.0644    5.0207 O   0  0  0  0  0  0  0  0  0  0  0  0
  -11.0705    5.2206    4.2679 C   0  0  0  0  0  0  0  0  0  0  0  0
  -12.0508    4.1109    4.5448 C   0  0  0  0  0  0  0  0  0  0  0  0
  -11.8038    3.2712    5.4527 O   0  0  0  0  0  0  0  0  0  0  0  0
  -13.2966    4.0041    3.7537 C   0  0  0  0  0  0  0  0  0  0  0  0
  -13.8353    5.0062    2.9662 C   0  0  0  0  0  0  0  0  0  0  0  0
  -14.9905    4.4859    2.4157 C   0  0  0  0  0  0  0  0  0  0  0  0
  -15.9225    5.2708    1.5400 C   0  0  0  0  0  0  0  0  0  0  0  0
  -15.1537    3.1900    2.7796 N   0  0  0  0  0  0  0  0  0  0  0  0
  -16.2672    2.3112    2.3979 C   0  0  0  0  0  0  0  0  0  0  0  0
  -16.4460    2.1520    0.8909 C   0  0  0  0  0  0  0  0  0  0  0  0
  -15.8386    1.0230    1.7044 C   0  0  0  0  0  0  0  0  0  0  0  0
  -14.1497    2.9038    3.6441 C   0  0  0  0  0  0  0  0  0  0  0  0
  -13.9841    1.5917    4.3693 C   0  0  0  0  0  0  0  0  0  0  0  0
  1  3  4  0
  1 14  4  0
  1  2  1  0
  3  4  4  0
  4  5  4  0
  5  6  4  0
  5 22  1  0
  6  7  1  0
  6 14  4  0
  7  8  1  0
  8  9  4  0
  8 12  4  0
  9 10  4  0
 10 11  4  0
 11 12  4  0
 12 13  1  0
 13 14  1  0
 13 15  1  6
 15 16  4  0
 15 20  4  0
 16 17  4  0
 17 18  4  0
 17 21  1  0
 18 19  4  0
 19 20  4  0
 23 24  4  0
 24 25  1  0
 25 26  2  0
 25 27  1  0
 24 28  4  0
 28 29  4  0
 29 30  4  0
 30 31  1  0
 31 32  1  0
 32 33  1  0
 33 34  2  0
 33 35  1  0
 35 36  4  0
 36 37  4  0
 37 38  1  0
 37 39  4  0
 39 40  1  0
 40 41  1  0
 41 42  1  0
 39 43  4  0
 43 44  1  0
 43 35  4  0
 42 40  1  0
  2 23  4  0
  2 30  4  0
M  CHG  2  25   1  27  -1
M  END
$$$$

     RDKit          3D

 44 50  0  0  0  0  0  0  0  0999 V2000
   -7.6410    4.9930    6.8080 C   0  0  0  0  0  0  0  0  0  1  0  0
   -7.7310    4.0530    5.7140 C   0  0  0  0  0  0  0  0  0  2  0  0
   -6.4520    5.6300    6.8680 N   0  0  0  0  0  0  0  0  0  0  0  0
   -6.2260    6.5240    7.8670 N   0  0  0  0  0  0  0  0  0  0  0  0
   -7.1930    6.7500    8.7820 C   0  0  0  0  0  0  0  0  0  0  0  0
   -8.4240    6.1170    8.7580 C   0  0  0  0  0  0  0  0  0  0  0  0
   -9.3950    6.3570    9.7450 N   0  0  0  0  0  0  0  0  0  0  0  0
  -10.5620    5.6840    9.7600 C   0  0  0  0  0  0  0  0  0  0  0  0
  -11.5770    5.6820   10.5960 N   0  0  0  0  0  0  0  0  0  0  0  0
  -12.4690    4.7490   10.1080 N   0  0  0  0  0  0  0  0  0  0  0  0
  -12.0160    4.1880    8.9920 N   0  0  0  0  0  0  0  0  0  0  0  0
  -10.8400    4.7900    8.7610 N   0  0  0  0  0  0  0  0  0  0  0  0
   -9.9950    4.4790    7.6090 C   0  0  0  0  0  0  0  0  0  0  0  0
   -8.6630    5.2070    7.7200 C   0  0  0  0  0  0  0  0  0  0  0  0
  -10.7490    4.8610    6.3730 C   0  0  0  0  0  0  0  0  0  0  0  0
  -11.0350    6.2020    6.1170 C   0  0  0  0  0  0  0  0  0  0  0  0
  -11.7370    6.5580    4.9650 C   0  0  0  0  0  0  0  0  0  0  0  0
  -12.1550    5.5730    4.0710 C   0  0  0  0  0  0  0  0  0  0  0  0
  -11.8700    4.2310    4.3270 C   0  0  0  0  0  0  0  0  0  0  0  0
  -11.1660    3.8760    5.4790 C   0  0  0  0  0  0  0  0  0  0  0  0
  -12.0160    7.8660    4.7150 O   0  0  0  0  0  0  0  0  0  0  0  0
   -6.8990    7.6510    9.7710 O   0  0  0  0  0  0  0  0  0  0  0  0
   -6.8257    2.9916    5.4983 C   0  0  0  0  0  0  0  0  0  0  0  0
   -6.9901    2.0094    4.5026 C   0  0  0  0  0  0  0  0  0  0  0  0
   -6.0140    0.9620    4.3324 N   0  0  0  0  0  0  0  0  0  0  0  0
   -4.9757    0.9374    5.0315 O   0  0  0  0  0  0  0  0  0  0  0  0
   -6.2077   -0.0265    3.3930 O   0  0  0  0  0  0  0  0  0  0  0  0
   -8.1348    2.0527    3.6865 C   0  0  0  0  0  0  0  0  0  0  0  0
   -9.0933    3.0530    3.8607 C   0  0  0  0  0  0  0  0  0  0  0  0
   -8.9276    4.0310    4.8457 C   0  0  0  0  0  0  0  0  0  0  0  0
   -9.9034    5.0240    4.9746 O   0  0  0  0  0  0  0  0  0  0  0  0
   -9.6825    6.3627    4.5349 C   0  0  0  0  0  0  0  0  0  0  0  0
   -9.7055    6.4261    3.0340 C   0  0  0  0  0  0  0  0  0  0  0  0
   -8.6464    6.7191    2.4213 O   0  0  0  0  0  0  0  0  0  0  0  0
  -10.9562    6.1603    2.2807 C   0  0  0  0  0  0  0  0  0  0  0  0
  -12.2038    5.9406    2.8391 C   0  0  0  0  0  0  0  0  0  0  0  0
  -13.0875    5.7925    1.7878 C   0  0  0  0  0  0  0  0  0  0  0  0
  -14.5546    5.5318    1.9535 C   0  0  0  0  0  0  0  0  0  0  0  0
  -12.4451    5.9464    0.6080 N   0  0  0  0  0  0  0  0  0  0  0  0
  -13.0551    5.8564   -0.7249 C   0  0  0  0  0  0  0  0  0  0  0  0
  -14.1512    6.8919   -0.9636 C   0  0  0  0  0  0  0  0  0  0  0  0
  -12.7995    7.0561   -1.6285 C   0  0  0  0  0  0  0  0  0  0  0  0
  -11.1313    6.1203    0.9001 C   0  0  0  0  0  0  0  0  0  0  0  0
  -10.0256    6.2161   -0.1162 C   0  0  0  0  0  0  0  0  0  0  0  0
  1  3  4  0
  1 14  4  0
  1  2  1  0
  3  4  4  0
  4  5  4  0
  5  6  4  0
  5 22  1  0
  6  7  1  0
  6 14  4  0
  7  8  1  0
  8  9  4  0
  8 12  4  0
  9 10  4  0
 10 11  4  0
 11 12  4  0
 12 13  1  0
 13 14  1  0
 13 15  1  6
 15 16  4  0
 15 20  4  0
 16 17  4  0
 17 18  4  0
 17 21  1  0
 18 19  4  0
 19 20  4  0
 23 24  4  0
 24 25  1  0
 25 26  2  0
 25 27  1  0
 24 28  4  0
 28 29  4  0
 29 30  4  0
 30 31  1  0
 31 32  1  0
 32 33  1  0
 33 34  2  0
 33 35  1  0
 35 36  4  0
 36 37  4  0
 37 38  1  0
 37 39  4  0
 39 40  1  0
 40 41  1  0
 41 42  1  0
 39 43  4  0
 43 44  1  0
 43 35  4  0
 42 40  1  0
  2 23  4  0
  2 30  4  0
M  CHG  2  25   1  27  -1
M  END
$$$$

     RDKit          3D

 45 51  0  0  0  0  0  0  0  0999 V2000
   -7.6410    4.9930    6.8080 C   0  0  0  0  0  0  0  0  0  1  0  0
   -7.7310    4.0530    5.7140 C   0  0  0  0  0  0  0  0  0  2  0  0
   -6.4520    5.6300    6.8680 N   0  0  0  0  0  0  0  0  0  0  0  0
   -6.2260    6.5240    7.8670 N   0  0  0  0  0  0  0  0  0  0  0  0
   -7.1930    6.7500    8.7820 C   0  0  0  0  0  0  0  0  0  0  0  0
   -8.4240    6.1170    8.7580 C   0  0  0  0  0  0  0  0  0  0  0  0
   -9.3950    6.3570    9.7450 N   0  0  0  0  0  0  0  0  0  0  0  0
  -10.5620    5.6840    9.7600 C   0  0  0  0  0  0  0  0  0  0  0  0
  -11.5770    5.6820   10.5960 N   0  0  0  0  0  0  0  0  0  0  0  0
  -12.4690    4.7490   10.1080 N   0  0  0  0  0  0  0  0  0  0  0  0
  -12.0160    4.1880    8.9920 N   0  0  0  0  0  0  0  0  0  0  0  0
  -10.8400    4.7900    8.7610 N   0  0  0  0  0  0  0  0  0  0  0  0
   -9.9950    4.4790    7.6090 C   0  0  0  0  0  0  0  0  0  0  0  0
   -8.6630    5.2070    7.7200 C   0  0  0  0  0  0  0  0  0  0  0  0
  -10.7490    4.8610    6.3730 C   0  0  0  0  0  0  0  0  0  0  0  0
  -11.0350    6.2020    6.1170 C   0  0  0  0  0  0  0  0  0  0  0  0
  -11.7370    6.5580    4.9650 C   0  0  0  0  0  0  0  0  0  0  0  0
  -12.1550    5.5730    4.0710 C   0  0  0  0  0  0  0  0  0  0  0  0
  -11.8700    4.2310    4.3270 C   0  0  0  0  0  0  0  0  0  0  0  0
  -11.1660    3.8760    5.4790 C   0  0  0  0  0  0  0  0  0  0  0  0
  -12.0160    7.8660    4.7150 O   0  0  0  0  0  0  0  0  0  0  0  0
   -6.8990    7.6510    9.7710 O   0  0  0  0  0  0  0  0  0  0  0  0
   -6.7638    3.1699    5.3471 N   0  0  0  0  0  0  0  0  0  0  0  0
   -7.0971    2.3518    4.3256 C   0  0  0  0  0  0  0  0  0  0  0  0
   -6.2086    1.3904    3.7456 N   0  0  0  0  0  0  0  0  0  0  0  0
   -4.9042    1.0989    4.2692 C   0  0  0  0  0  0  0  0  0  0  0  0
   -4.6000    1.4388    5.4453 O   0  0  0  0  0  0  0  0  0  0  0  0
   -3.9251    0.3480    3.4549 C   0  0  0  0  0  0  0  0  0  0  0  0
   -3.2020   -0.6968    4.0556 C   0  0  0  0  0  0  0  0  0  0  0  0
   -2.3078   -1.4811    3.3073 C   0  0  0  0  0  0  0  0  0  0  0  0
   -1.5893   -2.5618    3.9307 N   0  0  0  0  0  0  0  0  0  0  0  0
   -0.8230   -3.2865    3.2622 O   0  0  0  0  0  0  0  0  0  0  0  0
   -1.7496   -2.8274    5.2718 O   0  0  0  0  0  0  0  0  0  0  0  0
   -2.1343   -1.1996    1.9428 C   0  0  0  0  0  0  0  0  0  0  0  0
   -2.8306   -0.1503    1.3420 C   0  0  0  0  0  0  0  0  0  0  0  0
   -3.7226    0.6354    2.0849 C   0  0  0  0  0  0  0  0  0  0  0  0
   -4.3528    1.7643    1.4518 N   0  0  0  0  0  0  0  0  0  0  0  0
   -4.1091    3.1283    1.9252 C   0  0  0  0  0  0  0  0  0  0  0  0
   -3.7313    4.0104    0.7303 C   0  0  0  0  0  0  0  0  0  0  0  0
   -4.7020    3.9093   -0.2972 O   0  0  0  0  0  0  0  0  0  0  0  0
   -4.7273    2.5897   -0.8130 C   0  0  0  0  0  0  0  0  0  0  0  0
   -5.1847    1.5959    0.2593 C   0  0  0  0  0  0  0  0  0  0  0  0
   -8.6567    2.6383    3.7748 S   0  0  0  0  0  0  0  0  0  0  0  0
   -8.9333    3.8637    4.8959 C   0  0  0  0  0  0  0  0  0  0  0  0
  -10.2030    4.6510    4.9752 C   0  0  0  0  0  0  0  0  0  0  0  0
  1  3  4  0
  1 14  4  0
  1  2  1  0
  3  4  4  0
  4  5  4  0
  5  6  4  0
  5 22  1  0
  6  7  1  0
  6 14  4  0
  7  8  1  0
  8  9  4  0
  8 12  4  0
  9 10  4  0
 10 11  4  0
 11 12  4  0
 12 13  1  0
 13 14  1  0
 13 15  1  6
 15 16  4  0
 15 20  4  0
 16 17  4  0
 17 18  4  0
 17 21  1  0
 18 19  4  0
 19 20  4  0
 23 24  4  0
 24 25  1  0
 25 26  1  0
 26 27  2  0
 26 28  1  0
 28 29  4  0
 29 30  4  0
 30 31  1  0
 31 32  2  0
 31 33  1  0
 30 34  4  0
 34 35  4  0
 35 36  4  0
 36 37  1  0
 37 38  1  0
 38 39  1  0
 39 40  1  0
 40 41  1  0
 41 42  1  0
 24 43  4  0
 43 44  4  0
 44 45  1  0
 36 28  4  0
 42 37  1  0
  2 23  4  0
  2 44  4  0
M  CHG  2  31   1  33  -1
M  END
$$$$

     RDKit          3D

 45 51  0  0  0  0  0  0  0  0999 V2000
   -7.6410    4.9930    6.8080 C   0  0  0  0  0  0  0  0  0  1  0  0
   -7.7310    4.0530    5.7140 C   0  0  0  0  0  0  0  0  0  2  0  0
   -6.4520    5.6300    6.8680 N   0  0  0  0  0  0  0  0  0  0  0  0
   -6.2260    6.5240    7.8670 N   0  0  0  0  0  0  0  0  0  0  0  0
   -7.1930    6.7500    8.7820 C   0  0  0  0  0  0  0  0  0  0  0  0
   -8.4240    6.1170    8.7580 C   0  0  0  0  0  0  0  0  0  0  0  0
   -9.3950    6.3570    9.7450 N   0  0  0  0  0  0  0  0  0  0  0  0
  -10.5620    5.6840    9.7600 C   0  0  0  0  0  0  0  0  0  0  0  0
  -11.5770    5.6820   10.5960 N   0  0  0  0  0  0  0  0  0  0  0  0
  -12.4690    4.7490   10.1080 N   0  0  0  0  0  0  0  0  0  0  0  0
  -12.0160    4.1880    8.9920 N   0  0  0  0  0  0  0  0  0  0  0  0
  -10.8400    4.7900    8.7610 N   0  0  0  0  0  0  0  0  0  0  0  0
   -9.9950    4.4790    7.6090 C   0  0  0  0  0  0  0  0  0  0  0  0
   -8.6630    5.2070    7.7200 C   0  0  0  0  0  0  0  0  0  0  0  0
  -10.7490    4.8610    6.3730 C   0  0  0  0  0  0  0  0  0  0  0  0
  -11.0350    6.2020    6.1170 C   0  0  0  0  0  0  0  0  0  0  0  0
  -11.7370    6.5580    4.9650 C   0  0  0  0  0  0  0  0  0  0  0  0
  -12.1550    5.5730    4.0710 C   0  0  0  0  0  0  0  0  0  0  0  0
  -11.8700    4.2310    4.3270 C   0  0  0  0  0  0  0  0  0  0  0  0
  -11.1660    3.8760    5.4790 C   0  0  0  0  0  0  0  0  0  0  0  0
  -12.0160    7.8660    4.7150 O   0  0  0  0  0  0  0  0  0  0  0  0
   -6.8990    7.6510    9.7710 O   0  0  0  0  0  0  0  0  0  0  0  0
   -6.8124    3.0892    5.4233 N   0  0  0  0  0  0  0  0  0  0  0  0
   -7.1447    2.2669    4.4062 C   0  0  0  0  0  0  0  0  0  0  0  0
   -6.3240    1.1564    4.0190 N   0  0  0  0  0  0  0  0  0  0  0  0
   -6.5647    0.3471    2.8595 C   0  0  0  0  0  0  0  0  0  0  0  0
   -7.2084    0.8151    1.8838 O   0  0  0  0  0  0  0  0  0  0  0  0
   -6.0432   -1.0374    2.8020 C   0  0  0  0  0  0  0  0  0  0  0  0
   -6.0136   -1.8114    3.9777 C   0  0  0  0  0  0  0  0  0  0  0  0
   -5.5502   -3.1338    3.9591 C   0  0  0  0  0  0  0  0  0  0  0  0
   -5.5450   -3.9216    5.1675 N   0  0  0  0  0  0  0  0  0  0  0  0
   -5.0988   -5.0869    5.1698 O   0  0  0  0  0  0  0  0  0  0  0  0
   -6.0046   -3.3881    6.3498 O   0  0  0  0  0  0  0  0  0  0  0  0
   -5.1128   -3.6817    2.7429 C   0  0  0  0  0  0  0  0  0  0  0  0
   -5.1360   -2.9264    1.5717 C   0  0  0  0  0  0  0  0  0  0  0  0
   -5.5984   -1.6078    1.5892 C   0  0  0  0  0  0  0  0  0  0  0  0
   -5.5383   -0.8342    0.3823 N   0  0  0  0  0  0  0  0  0  0  0  0
   -6.4238   -1.1921   -0.7248 C   0  0  0  0  0  0  0  0  0  0  0  0
   -6.4752   -0.0624   -1.7522 C   0  0  0  0  0  0  0  0  0  0  0  0
   -5.1629    0.3132   -2.1271 O   0  0  0  0  0  0  0  0  0  0  0  0
   -4.5213    0.9277   -1.0278 C   0  0  0  0  0  0  0  0  0  0  0  0
   -4.3163   -0.0668    0.1227 C   0  0  0  0  0  0  0  0  0  0  0  0
   -8.6684    2.6326    3.7882 S   0  0  0  0  0  0  0  0  0  0  0  0
   -8.9062    3.9171    4.8513 C   0  0  0  0  0  0  0  0  0  0  0  0
  -10.1329    4.7729    4.8768 C   0  0  0  0  0  0  0  0  0  0  0  0
  1  3  4  0
  1 14  4  0
  1  2  1  0
  3  4  4  0
  4  5  4  0
  5  6  4  0
  5 22  1  0
  6  7  1  0
  6 14  4  0
  7  8  1  0
  8  9  4  0
  8 12  4  0
  9 10  4  0
 10 11  4  0
 11 12  4  0
 12 13  1  0
 13 14  1  0
 13 15  1  6
 15 16  4  0
 15 20  4  0
 16 17  4  0
 17 18  4  0
 17 21  1  0
 18 19  4  0
 19 20  4  0
 23 24  4  0
 24 25  1  0
 25 26  1  0
 26 27  2  0
 26 28  1  0
 28 29  4  0
 29 30  4  0
 30 31  1  0
 31 32  2  0
 31 33  1  0
 30 34  4  0
 34 35  4  0
 35 36  4  0
 36 37  1  0
 37 38  1  0
 38 39  1  0
 39 40  1  0
 40 41  1  0
 41 42  1  0
 24 43  4  0
 43 44  4  0
 44 45  1  0
 36 28  4  0
 42 37  1  0
  2 23  4  0
  2 44  4  0
M  CHG  2  31   1  33  -1
M  END
$$$$

     RDKit          3D

 45 51  0  0  0  0  0  0  0  0999 V2000
   -7.6410    4.9930    6.8080 C   0  0  0  0  0  0  0  0  0  1  0  0
   -7.7310    4.0530    5.7140 C   0  0  0  0  0  0  0  0  0  2  0  0
   -6.4520    5.6300    6.8680 N   0  0  0  0  0  0  0  0  0  0  0  0
   -6.2260    6.5240    7.8670 N   0  0  0  0  0  0  0  0  0  0  0  0
   -7.1930    6.7500    8.7820 C   0  0  0  0  0  0  0  0  0  0  0  0
   -8.4240    6.1170    8.7580 C   0  0  0  0  0  0  0  0  0  0  0  0
   -9.3950    6.3570    9.7450 N   0  0  0  0  0  0  0  0  0  0  0  0
  -10.5620    5.6840    9.7600 C   0  0  0  0  0  0  0  0  0  0  0  0
  -11.5770    5.6820   10.5960 N   0  0  0  0  0  0  0  0  0  0  0  0
  -12.4690    4.7490   10.1080 N   0  0  0  0  0  0  0  0  0  0  0  0
  -12.0160    4.1880    8.9920 N   0  0  0  0  0  0  0  0  0  0  0  0
  -10.8400    4.7900    8.7610 N   0  0  0  0  0  0  0  0  0  0  0  0
   -9.9950    4.4790    7.6090 C   0  0  0  0  0  0  0  0  0  0  0  0
   -8.6630    5.2070    7.7200 C   0  0  0  0  0  0  0  0  0  0  0  0
  -10.7490    4.8610    6.3730 C   0  0  0  0  0  0  0  0  0  0  0  0
  -11.0350    6.2020    6.1170 C   0  0  0  0  0  0  0  0  0  0  0  0
  -11.7370    6.5580    4.9650 C   0  0  0  0  0  0  0  0  0  0  0  0
  -12.1550    5.5730    4.0710 C   0  0  0  0  0  0  0  0  0  0  0  0
  -11.8700    4.2310    4.3270 C   0  0  0  0  0  0  0  0  0  0  0  0
  -11.1660    3.8760    5.4790 C   0  0  0  0  0  0  0  0  0  0  0  0
  -12.0160    7.8660    4.7150 O   0  0  0  0  0  0  0  0  0  0  0  0
   -6.8990    7.6510    9.7710 O   0  0  0  0  0  0  0  0  0  0  0  0
   -6.8203    3.0749    5.4363 N   0  0  0  0  0  0  0  0  0  0  0  0
   -7.1425    2.2888    4.3855 C   0  0  0  0  0  0  0  0  0  0  0  0
   -6.3453    1.1897    3.9295 N   0  0  0  0  0  0  0  0  0  0  0  0
   -5.1349    0.7639    4.5777 C   0  0  0  0  0  0  0  0  0  0  0  0
   -4.5739    1.5133    5.4226 O   0  0  0  0  0  0  0  0  0  0  0  0
   -4.5477   -0.5662    4.2795 C   0  0  0  0  0  0  0  0  0  0  0  0
   -5.4020   -1.6414    3.9650 C   0  0  0  0  0  0  0  0  0  0  0  0
   -4.8887   -2.9288    3.7241 C   0  0  0  0  0  0  0  0  0  0  0  0
   -5.7668   -4.0088    3.3479 N   0  0  0  0  0  0  0  0  0  0  0  0
   -6.9512   -3.7800    3.0157 O   0  0  0  0  0  0  0  0  0  0  0  0
   -5.2607   -5.2817    3.1747 O   0  0  0  0  0  0  0  0  0  0  0  0
   -3.5052   -3.1455    3.8402 C   0  0  0  0  0  0  0  0  0  0  0  0
   -2.6494   -2.0910    4.1545 C   0  0  0  0  0  0  0  0  0  0  0  0
   -3.1515   -0.7991    4.3629 C   0  0  0  0  0  0  0  0  0  0  0  0
   -2.2195    0.2768    4.5724 N   0  0  0  0  0  0  0  0  0  0  0  0
   -2.0118    1.2784    3.5198 C   0  0  0  0  0  0  0  0  0  0  0  0
   -0.5010    1.5029    3.2718 C   0  0  0  0  0  0  0  0  0  0  0  0
    0.3044    0.6178    4.0343 O   0  0  0  0  0  0  0  0  0  0  0  0
    0.0392    0.8062    5.4125 C   0  0  0  0  0  0  0  0  0  0  0  0
   -1.3671    0.2938    5.7664 C   0  0  0  0  0  0  0  0  0  0  0  0
   -8.6261    2.7111    3.7186 S   0  0  0  0  0  0  0  0  0  0  0  0
   -8.8748    3.9672    4.8126 C   0  0  0  0  0  0  0  0  0  0  0  0
  -10.0815    4.8524    4.8211 C   0  0  0  0  0  0  0  0  0  0  0  0
  1  3  4  0
  1 14  4  0
  1  2  1  0
  3  4  4  0
  4  5  4  0
  5  6  4  0
  5 22  1  0
  6  7  1  0
  6 14  4  0
  7  8  1  0
  8  9  4  0
  8 12  4  0
  9 10  4  0
 10 11  4  0
 11 12  4  0
 12 13  1  0
 13 14  1  0
 13 15  1  6
 15 16  4  0
 15 20  4  0
 16 17  4  0
 17 18  4  0
 17 21  1  0
 18 19  4  0
 19 20  4  0
 23 24  4  0
 24 25  1  0
 25 26  1  0
 26 27  2  0
 26 28  1  0
 28 29  4  0
 29 30  4  0
 30 31  1  0
 31 32  2  0
 31 33  1  0
 30 34  4  0
 34 35  4  0
 35 36  4  0
 36 37  1  0
 37 38  1  0
 38 39  1  0
 39 40  1  0
 40 41  1  0
 41 42  1  0
 24 43  4  0
 43 44  4  0
 44 45  1  0
 36 28  4  0
 42 37  1  0
  2 23  4  0
  2 44  4  0
M  CHG  2  31   1  33  -1
M  END
$$$$

     RDKit          3D

 35 40  0  0  0  0  0  0  0  0999 V2000
   -7.6410    4.9930    6.8080 C   0  0  0  0  0  0  0  0  0  1  0  0
   -7.7310    4.0530    5.7140 C   0  0  0  0  0  0  0  0  0  2  0  0
   -6.4520    5.6300    6.8680 N   0  0  0  0  0  0  0  0  0  0  0  0
   -6.2260    6.5240    7.8670 N   0  0  0  0  0  0  0  0  0  0  0  0
   -7.1930    6.7500    8.7820 C   0  0  0  0  0  0  0  0  0  0  0  0
   -8.4240    6.1170    8.7580 C   0  0  0  0  0  0  0  0  0  0  0  0
   -9.3950    6.3570    9.7450 N   0  0  0  0  0  0  0  0  0  0  0  0
  -10.5620    5.6840    9.7600 C   0  0  0  0  0  0  0  0  0  0  0  0
  -11.5770    5.6820   10.5960 N   0  0  0  0  0  0  0  0  0  0  0  0
  -12.4690    4.7490   10.1080 N   0  0  0  0  0  0  0  0  0  0  0  0
  -12.0160    4.1880    8.9920 N   0  0  0  0  0  0  0  0  0  0  0  0
  -10.8400    4.7900    8.7610 N   0  0  0  0  0  0  0  0  0  0  0  0
   -9.9950    4.4790    7.6090 C   0  0  0  0  0  0  0  0  0  0  0  0
   -8.6630    5.2070    7.7200 C   0  0  0  0  0  0  0  0  0  0  0  0
  -10.7490    4.8610    6.3730 C   0  0  0  0  0  0  0  0  0  0  0  0
  -11.0350    6.2020    6.1170 C   0  0  0  0  0  0  0  0  0  0  0  0
  -11.7370    6.5580    4.9650 C   0  0  0  0  0  0  0  0  0  0  0  0
  -12.1550    5.5730    4.0710 C   0  0  0  0  0  0  0  0  0  0  0  0
  -11.8700    4.2310    4.3270 C   0  0  0  0  0  0  0  0  0  0  0  0
  -11.1660    3.8760    5.4790 C   0  0  0  0  0  0  0  0  0  0  0  0
  -12.0160    7.8660    4.7150 O   0  0  0  0  0  0  0  0  0  0  0  0
   -6.8990    7.6510    9.7710 O   0  0  0  0  0  0  0  0  0  0  0  0
   -6.7506    3.3379    5.0656 C   0  0  0  0  0  0  0  0  0  0  0  0
   -7.3306    2.5076    4.1275 C   0  0  0  0  0  0  0  0  0  0  0  0
   -6.5706    1.5843    3.2242 C   0  0  0  0  0  0  0  0  0  0  0  0
   -8.6745    2.6620    4.1316 N   0  0  0  0  0  0  0  0  0  0  0  0
   -9.6151    1.9684    3.2935 C   0  0  0  0  0  0  0  0  0  0  0  0
   -9.5147    2.0491    1.8956 C   0  0  0  0  0  0  0  0  0  0  0  0
  -10.4303    1.3727    1.0837 C   0  0  0  0  0  0  0  0  0  0  0  0
  -11.4518    0.6131    1.6620 C   0  0  0  0  0  0  0  0  0  0  0  0
  -12.3394   -0.0417    0.8735 F   0  0  0  0  0  0  0  0  0  0  0  0
  -11.5587    0.5302    3.0536 C   0  0  0  0  0  0  0  0  0  0  0  0
  -10.6441    1.2052    3.8678 C   0  0  0  0  0  0  0  0  0  0  0  0
   -8.9630    3.5862    5.0792 C   0  0  0  0  0  0  0  0  0  0  0  0
  -10.3444    4.1107    5.3532 C   0  0  0  0  0  0  0  0  0  0  0  0
  1  3  4  0
  1 14  4  0
  1  2  1  0
  3  4  4  0
  4  5  4  0
  5  6  4  0
  5 22  1  0
  6  7  1  0
  6 14  4  0
  7  8  1  0
  8  9  4  0
  8 12  4  0
  9 10  4  0
 10 11  4  0
 11 12  4  0
 12 13  1  0
 13 14  1  0
 13 15  1  6
 15 16  4  0
 15 20  4  0
 16 17  4  0
 17 18  4  0
 17 21  1  0
 18 19  4  0
 19 20  4  0
 23 24  4  0
 24 25  1  0
 24 26  4  0
 26 27  1  0
 27 28  4  0
 28 29  4  0
 29 30  4  0
 30 31  1  0
 30 32  4  0
 32 33  4  0
 26 34  4  0
 34 35  1  0
 33 27  4  0
  2 23  4  0
  2 34  4  0
M  END
$$$$

     RDKit          3D

 35 40  0  0  0  0  0  0  0  0999 V2000
   -7.6410    4.9930    6.8080 C   0  0  0  0  0  0  0  0  0  1  0  0
   -7.7310    4.0530    5.7140 C   0  0  0  0  0  0  0  0  0  2  0  0
   -6.4520    5.6300    6.8680 N   0  0  0  0  0  0  0  0  0  0  0  0
   -6.2260    6.5240    7.8670 N   0  0  0  0  0  0  0  0  0  0  0  0
   -7.1930    6.7500    8.7820 C   0  0  0  0  0  0  0  0  0  0  0  0
   -8.4240    6.1170    8.7580 C   0  0  0  0  0  0  0  0  0  0  0  0
   -9.3950    6.3570    9.7450 N   0  0  0  0  0  0  0  0  0  0  0  0
  -10.5620    5.6840    9.7600 C   0  0  0  0  0  0  0  0  0  0  0  0
  -11.5770    5.6820   10.5960 N   0  0  0  0  0  0  0  0  0  0  0  0
  -12.4690    4.7490   10.1080 N   0  0  0  0  0  0  0  0  0  0  0  0
  -12.0160    4.1880    8.9920 N   0  0  0  0  0  0  0  0  0  0  0  0
  -10.8400    4.7900    8.7610 N   0  0  0  0  0  0  0  0  0  0  0  0
   -9.9950    4.4790    7.6090 C   0  0  0  0  0  0  0  0  0  0  0  0
   -8.6630    5.2070    7.7200 C   0  0  0  0  0  0  0  0  0  0  0  0
  -10.7490    4.8610    6.3730 C   0  0  0  0  0  0  0  0  0  0  0  0
  -11.0350    6.2020    6.1170 C   0  0  0  0  0  0  0  0  0  0  0  0
  -11.7370    6.5580    4.9650 C   0  0  0  0  0  0  0  0  0  0  0  0
  -12.1550    5.5730    4.0710 C   0  0  0  0  0  0  0  0  0  0  0  0
  -11.8700    4.2310    4.3270 C   0  0  0  0  0  0  0  0  0  0  0  0
  -11.1660    3.8760    5.4790 C   0  0  0  0  0  0  0  0  0  0  0  0
  -12.0160    7.8660    4.7150 O   0  0  0  0  0  0  0  0  0  0  0  0
   -6.8990    7.6510    9.7710 O   0  0  0  0  0  0  0  0  0  0  0  0
   -6.7446    3.3378    5.0722 C   0  0  0  0  0  0  0  0  0  0  0  0
   -7.3176    2.5080    4.1301 C   0  0  0  0  0  0  0  0  0  0  0  0
   -6.5616    1.5571    3.2533 C   0  0  0  0  0  0  0  0  0  0  0  0
   -8.6614    2.6443    4.1422 N   0  0  0  0  0  0  0  0  0  0  0  0
   -9.5862    1.9255    3.3122 C   0  0  0  0  0  0  0  0  0  0  0  0
   -9.7676    0.5463    3.4911 C   0  0  0  0  0  0  0  0  0  0  0  0
  -10.6542   -0.1577    2.6702 C   0  0  0  0  0  0  0  0  0  0  0  0
  -11.3591    0.5114    1.6645 C   0  0  0  0  0  0  0  0  0  0  0  0
  -12.2179   -0.1724    0.8689 F   0  0  0  0  0  0  0  0  0  0  0  0
  -11.1756    1.8851    1.4777 C   0  0  0  0  0  0  0  0  0  0  0  0
  -10.2891    2.5909    2.2968 C   0  0  0  0  0  0  0  0  0  0  0  0
   -8.9602    3.5746    5.0802 C   0  0  0  0  0  0  0  0  0  0  0  0
  -10.3561    4.0084    5.4285 C   0  0  0  0  0  0  0  0  0  0  0  0
  1  3  4  0
  1 14  4  0
  1  2  1  0
  3  4  4  0
  4  5  4  0
  5  6  4  0
  5 22  1  0
  6  7  1  0
  6 14  4  0
  7  8  1  0
  8  9  4  0
  8 12  4  0
  9 10  4  0
 10 11  4  0
 11 12  4  0
 12 13  1  0
 13 14  1  0
 13 15  1  6
 15 16  4  0
 15 20  4  0
 16 17  4  0
 17 18  4  0
 17 21  1  0
 18 19  4  0
 19 20  4  0
 23 24  4  0
 24 25  1  0
 24 26  4  0
 26 27  1  0
 27 28  4  0
 28 29  4  0
 29 30  4  0
 30 31  1  0
 30 32  4  0
 32 33  4  0
 26 34  4  0
 34 35  1  0
 33 27  4  0
  2 23  4  0
  2 34  4  0
M  END
$$$$

     RDKit          3D

 42 47  0  0  0  0  0  0  0  0999 V2000
   -7.6410    4.9930    6.8080 C   0  0  0  0  0  0  0  0  0  1  0  0
   -7.7310    4.0530    5.7140 C   0  0  0  0  0  0  0  0  0  2  0  0
   -6.4520    5.6300    6.8680 N   0  0  0  0  0  0  0  0  0  0  0  0
   -6.2260    6.5240    7.8670 N   0  0  0  0  0  0  0  0  0  0  0  0
   -7.1930    6.7500    8.7820 C   0  0  0  0  0  0  0  0  0  0  0  0
   -8.4240    6.1170    8.7580 C   0  0  0  0  0  0  0  0  0  0  0  0
   -9.3950    6.3570    9.7450 N   0  0  0  0  0  0  0  0  0  0  0  0
  -10.5620    5.6840    9.7600 C   0  0  0  0  0  0  0  0  0  0  0  0
  -11.5770    5.6820   10.5960 N   0  0  0  0  0  0  0  0  0  0  0  0
  -12.4690    4.7490   10.1080 N   0  0  0  0  0  0  0  0  0  0  0  0
  -12.0160    4.1880    8.9920 N   0  0  0  0  0  0  0  0  0  0  0  0
  -10.8400    4.7900    8.7610 N   0  0  0  0  0  0  0  0  0  0  0  0
   -9.9950    4.4790    7.6090 C   0  0  0  0  0  0  0  0  0  0  0  0
   -8.6630    5.2070    7.7200 C   0  0  0  0  0  0  0  0  0  0  0  0
  -10.7490    4.8610    6.3730 C   0  0  0  0  0  0  0  0  0  0  0  0
  -11.0350    6.2020    6.1170 C   0  0  0  0  0  0  0  0  0  0  0  0
  -11.7370    6.5580    4.9650 C   0  0  0  0  0  0  0  0  0  0  0  0
  -12.1550    5.5730    4.0710 C   0  0  0  0  0  0  0  0  0  0  0  0
  -11.8700    4.2310    4.3270 C   0  0  0  0  0  0  0  0  0  0  0  0
  -11.1660    3.8760    5.4790 C   0  0  0  0  0  0  0  0  0  0  0  0
  -12.0160    7.8660    4.7150 O   0  0  0  0  0  0  0  0  0  0  0  0
   -6.8990    7.6510    9.7710 O   0  0  0  0  0  0  0  0  0  0  0  0
   -6.7890    3.1870    5.2878 N   0  0  0  0  0  0  0  0  0  0  0  0
   -7.2643    2.4468    4.2971 N   0  0  0  0  0  0  0  0  0  0  0  0
   -8.5385    2.8305    4.1005 C   0  0  0  0  0  0  0  0  0  0  0  0
   -9.6039    2.1086    2.8509 S   0  0  0  0  0  0  0  0  0  0  0  0
   -9.0760    3.2811    1.5591 C   0  0  0  0  0  0  0  0  0  0  0  0
   -9.9021    3.0837    0.3279 C   0  0  0  0  0  0  0  0  0  0  0  0
   -9.3552    2.6446   -0.7197 O   0  0  0  0  0  0  0  0  0  0  0  0
  -11.3094    3.3699    0.3560 N   0  0  0  0  0  0  0  0  0  0  0  0
  -12.1505    3.3635   -0.8058 C   0  0  0  0  0  0  0  0  0  0  0  0
  -13.3779    3.1091   -0.6706 O   0  0  0  0  0  0  0  0  0  0  0  0
  -11.6253    3.6948   -2.1013 N   0  0  0  0  0  0  0  0  0  0  0  0
  -12.3936    3.4803   -3.3361 C   0  0  0  0  0  0  0  0  0  0  0  0
  -12.4968    1.9706   -3.6432 C   0  0  0  0  0  0  0  0  0  0  0  0
  -11.1453    1.3824   -4.0628 C   0  0  0  0  0  0  0  0  0  0  0  0
  -10.5800    2.1190   -5.2797 C   0  0  0  0  0  0  0  0  0  0  0  0
  -10.4391    3.6212   -5.0010 C   0  0  0  0  0  0  0  0  0  0  0  0
  -11.7619    4.2641   -4.5220 C   0  0  0  0  0  0  0  0  0  0  0  0
  -12.7552    4.4408   -5.6832 C   0  0  0  0  0  0  0  0  0  0  0  0
   -8.8973    3.8169    4.9453 N   0  0  0  0  0  0  0  0  0  0  0  0
  -10.1848    4.5073    5.0132 C   0  0  0  0  0  0  0  0  0  0  0  0
  1  3  4  0
  1 14  4  0
  1  2  1  0
  3  4  4  0
  4  5  4  0
  5  6  4  0
  5 22  1  0
  6  7  1  0
  6 14  4  0
  7  8  1  0
  8  9  4  0
  8 12  4  0
  9 10  4  0
 10 11  4  0
 11 12  4  0
 12 13  1  0
 13 14  1  0
 13 15  1  6
 15 16  4  0
 15 20  4  0
 16 17  4  0
 17 18  4  0
 17 21  1  0
 18 19  4  0
 19 20  4  0
 23 24  4  0
 24 25  4  0
 25 26  1  0
 26 27  1  0
 27 28  1  0
 28 29  2  0
 28 30  1  0
 30 31  1  0
 31 32  2  0
 31 33  1  0
 33 34  1  0
 34 35  1  0
 35 36  1  0
 36 37  1  0
 37 38  1  0
 38 39  1  0
 39 40  1  0
 25 41  4  0
 41 42  1  0
 39 34  1  0
  2 23  4  0
  2 41  4  0
M  END
$$$$

     RDKit          3D

 44 50  0  0  0  0  0  0  0  0999 V2000
   -7.6410    4.9930    6.8080 C   0  0  0  0  0  0  0  0  0  1  0  0
   -7.7310    4.0530    5.7140 C   0  0  0  0  0  0  0  0  0  2  0  0
   -6.4520    5.6300    6.8680 N   0  0  0  0  0  0  0  0  0  0  0  0
   -6.2260    6.5240    7.8670 N   0  0  0  0  0  0  0  0  0  0  0  0
   -7.1930    6.7500    8.7820 C   0  0  0  0  0  0  0  0  0  0  0  0
   -8.4240    6.1170    8.7580 C   0  0  0  0  0  0  0  0  0  0  0  0
   -9.3950    6.3570    9.7450 N   0  0  0  0  0  0  0  0  0  0  0  0
  -10.5620    5.6840    9.7600 C   0  0  0  0  0  0  0  0  0  0  0  0
  -11.5770    5.6820   10.5960 N   0  0  0  0  0  0  0  0  0  0  0  0
  -12.4690    4.7490   10.1080 N   0  0  0  0  0  0  0  0  0  0  0  0
  -12.0160    4.1880    8.9920 N   0  0  0  0  0  0  0  0  0  0  0  0
  -10.8400    4.7900    8.7610 N   0  0  0  0  0  0  0  0  0  0  0  0
   -9.9950    4.4790    7.6090 C   0  0  0  0  0  0  0  0  0  0  0  0
   -8.6630    5.2070    7.7200 C   0  0  0  0  0  0  0  0  0  0  0  0
  -10.7490    4.8610    6.3730 C   0  0  0  0  0  0  0  0  0  0  0  0
  -11.0350    6.2020    6.1170 C   0  0  0  0  0  0  0  0  0  0  0  0
  -11.7370    6.5580    4.9650 C   0  0  0  0  0  0  0  0  0  0  0  0
  -12.1550    5.5730    4.0710 C   0  0  0  0  0  0  0  0  0  0  0  0
  -11.8700    4.2310    4.3270 C   0  0  0  0  0  0  0  0  0  0  0  0
  -11.1660    3.8760    5.4790 C   0  0  0  0  0  0  0  0  0  0  0  0
  -12.0160    7.8660    4.7150 O   0  0  0  0  0  0  0  0  0  0  0  0
   -6.8990    7.6510    9.7710 O   0  0  0  0  0  0  0  0  0  0  0  0
   -6.7895    3.0456    5.4392 C   0  0  0  0  0  0  0  0  0  0  0  0
   -6.9228    2.1521    4.4655 O   0  0  0  0  0  0  0  0  0  0  0  0
   -7.9894    2.1051    3.6749 C   0  0  0  0  0  0  0  0  0  0  0  0
   -8.0618    1.1339    2.6702 C   0  0  0  0  0  0  0  0  0  0  0  0
   -9.1818    1.0724    1.8180 C   0  0  0  0  0  0  0  0  0  0  0  0
   -9.3087    0.1206    0.7929 O   0  0  0  0  0  0  0  0  0  0  0  0
   -8.2967   -0.8032    0.3719 C   0  0  0  0  0  0  0  0  0  0  0  0
   -8.8646   -1.8318   -0.4231 O   0  0  0  0  0  0  0  0  0  0  0  0
   -9.4687   -1.3191   -1.6021 C   0  0  0  0  0  0  0  0  0  0  0  0
  -10.1547   -2.4922   -2.3232 C   0  0  0  0  0  0  0  0  0  0  0  0
  -10.9371   -2.0445   -3.3978 O   0  0  0  0  0  0  0  0  0  0  0  0
   -8.4125   -0.6419   -2.5097 C   0  0  0  0  0  0  0  0  0  0  0  0
   -9.0433   -0.0751   -3.6303 O   0  0  0  0  0  0  0  0  0  0  0  0
   -7.6816    0.4614   -1.7218 C   0  0  0  0  0  0  0  0  0  0  0  0
   -6.6056    0.9656   -2.4720 O   0  0  0  0  0  0  0  0  0  0  0  0
   -7.1569   -0.0908   -0.3898 C   0  0  0  0  0  0  0  0  0  0  0  0
   -6.1092   -0.9958   -0.6316 O   0  0  0  0  0  0  0  0  0  0  0  0
  -10.2250    1.9886    1.9941 C   0  0  0  0  0  0  0  0  0  0  0  0
  -10.1612    2.9615    2.9951 C   0  0  0  0  0  0  0  0  0  0  0  0
   -9.0437    3.0285    3.8444 C   0  0  0  0  0  0  0  0  0  0  0  0
   -8.9328    3.9916    4.8626 C   0  0  0  0  0  0  0  0  0  0  0  0
   -9.8409    4.8533    5.0254 O   0  0  0  0  0  0  0  0  0  0  0  0
  1  3  4  0
  1 14  4  0
  1  2  1  0
  3  4  4  0
  4  5  4  0
  5  6  4  0
  5 22  1  0
  6  7  1  0
  6 14  4  0
  7  8  1  0
  8  9  4  0
  8 12  4  0
  9 10  4  0
 10 11  4  0
 11 12  4  0
 12 13  1  0
 13 14  1  0
 13 15  1  6
 15 16  4  0
 15 20  4  0
 16 17  4  0
 17 18  4  0
 17 21  1  0
 18 19  4  0
 19 20  4  0
 23 24  4  0
 24 25  4  0
 25 26  4  0
 26 27  4  0
 27 28  1  0
 28 29  1  0
 29 30  1  0
 30 31  1  0
 31 32  1  0
 32 33  1  0
 31 34  1  0
 34 35  1  0
 34 36  1  0
 36 37  1  0
 36 38  1  0
 38 39  1  0
 27 40  4  0
 40 41  4  0
 41 42  4  0
 42 43  4  0
 43 44  2  0
 42 25  4  0
 38 29  1  0
  2 23  4  0
  2 43  4  0
M  END
$$$$

     RDKit          3D

 44 50  0  0  0  0  0  0  0  0999 V2000
   -7.6410    4.9930    6.8080 C   0  0  0  0  0  0  0  0  0  1  0  0
   -7.7310    4.0530    5.7140 C   0  0  0  0  0  0  0  0  0  2  0  0
   -6.4520    5.6300    6.8680 N   0  0  0  0  0  0  0  0  0  0  0  0
   -6.2260    6.5240    7.8670 N   0  0  0  0  0  0  0  0  0  0  0  0
   -7.1930    6.7500    8.7820 C   0  0  0  0  0  0  0  0  0  0  0  0
   -8.4240    6.1170    8.7580 C   0  0  0  0  0  0  0  0  0  0  0  0
   -9.3950    6.3570    9.7450 N   0  0  0  0  0  0  0  0  0  0  0  0
  -10.5620    5.6840    9.7600 C   0  0  0  0  0  0  0  0  0  0  0  0
  -11.5770    5.6820   10.5960 N   0  0  0  0  0  0  0  0  0  0  0  0
  -12.4690    4.7490   10.1080 N   0  0  0  0  0  0  0  0  0  0  0  0
  -12.0160    4.1880    8.9920 N   0  0  0  0  0  0  0  0  0  0  0  0
  -10.8400    4.7900    8.7610 N   0  0  0  0  0  0  0  0  0  0  0  0
   -9.9950    4.4790    7.6090 C   0  0  0  0  0  0  0  0  0  0  0  0
   -8.6630    5.2070    7.7200 C   0  0  0  0  0  0  0  0  0  0  0  0
  -10.7490    4.8610    6.3730 C   0  0  0  0  0  0  0  0  0  0  0  0
  -11.0350    6.2020    6.1170 C   0  0  0  0  0  0  0  0  0  0  0  0
  -11.7370    6.5580    4.9650 C   0  0  0  0  0  0  0  0  0  0  0  0
  -12.1550    5.5730    4.0710 C   0  0  0  0  0  0  0  0  0  0  0  0
  -11.8700    4.2310    4.3270 C   0  0  0  0  0  0  0  0  0  0  0  0
  -11.1660    3.8760    5.4790 C   0  0  0  0  0  0  0  0  0  0  0  0
  -12.0160    7.8660    4.7150 O   0  0  0  0  0  0  0  0  0  0  0  0
   -6.8990    7.6510    9.7710 O   0  0  0  0  0  0  0  0  0  0  0  0
   -6.7854    3.0511    5.4328 C   0  0  0  0  0  0  0  0  0  0  0  0
   -6.9169    2.1602    4.4563 O   0  0  0  0  0  0  0  0  0  0  0  0
   -7.9863    2.1101    3.6697 C   0  0  0  0  0  0  0  0  0  0  0  0
   -8.0580    1.1436    2.6614 C   0  0  0  0  0  0  0  0  0  0  0  0
   -9.1743    1.0679    1.8203 C   0  0  0  0  0  0  0  0  0  0  0  0
   -9.1837    0.0734    0.8274 O   0  0  0  0  0  0  0  0  0  0  0  0
  -10.2858   -0.2558   -0.0207 C   0  0  0  0  0  0  0  0  0  0  0  0
   -9.7997   -1.0708   -1.0723 O   0  0  0  0  0  0  0  0  0  0  0  0
  -10.8204   -1.3113   -2.0261 C   0  0  0  0  0  0  0  0  0  0  0  0
  -10.2003   -1.9656   -3.2699 C   0  0  0  0  0  0  0  0  0  0  0  0
   -9.3283   -1.0716   -3.9081 O   0  0  0  0  0  0  0  0  0  0  0  0
  -11.9228   -2.2083   -1.4178 C   0  0  0  0  0  0  0  0  0  0  0  0
  -11.3989   -3.4832   -1.1400 O   0  0  0  0  0  0  0  0  0  0  0  0
  -12.4852   -1.5757   -0.1219 C   0  0  0  0  0  0  0  0  0  0  0  0
  -13.4383   -0.5846   -0.4242 O   0  0  0  0  0  0  0  0  0  0  0  0
  -11.3678   -1.0135    0.7934 C   0  0  0  0  0  0  0  0  0  0  0  0
  -10.7953   -2.0393    1.5693 O   0  0  0  0  0  0  0  0  0  0  0  0
  -10.2282    1.9868    1.9935 C   0  0  0  0  0  0  0  0  0  0  0  0
  -10.1642    2.9566    2.9985 C   0  0  0  0  0  0  0  0  0  0  0  0
   -9.0451    3.0263    3.8459 C   0  0  0  0  0  0  0  0  0  0  0  0
   -8.9357    3.9876    4.8660 C   0  0  0  0  0  0  0  0  0  0  0  0
   -9.8472    4.8448    5.0332 O   0  0  0  0  0  0  0  0  0  0  0  0
  1  3  4  0
  1 14  4  0
  1  2  1  0
  3  4  4  0
  4  5  4  0
  5  6  4  0
  5 22  1  0
  6  7  1  0
  6 14  4  0
  7  8  1  0
  8  9  4  0
  8 12  4  0
  9 10  4  0
 10 11  4  0
 11 12  4  0
 12 13  1  0
 13 14  1  0
 13 15  1  6
 15 16  4  0
 15 20  4  0
 16 17  4  0
 17 18  4  0
 17 21  1  0
 18 19  4  0
 19 20  4  0
 23 24  4  0
 24 25  4  0
 25 26  4  0
 26 27  4  0
 27 28  1  0
 28 29  1  0
 29 30  1  0
 30 31  1  0
 31 32  1  0
 32 33  1  0
 31 34  1  0
 34 35  1  0
 34 36  1  0
 36 37  1  0
 36 38  1  0
 38 39  1  0
 27 40  4  0
 40 41  4  0
 41 42  4  0
 42 43  4  0
 43 44  2  0
 42 25  4  0
 38 29  1  0
  2 23  4  0
  2 43  4  0
M  END
$$$$

     RDKit          3D

 41 47  0  0  0  0  0  0  0  0999 V2000
   -7.6410    4.9930    6.8080 C   0  0  0  0  0  0  0  0  0  1  0  0
   -7.7310    4.0530    5.7140 C   0  0  0  0  0  0  0  0  0  2  0  0
   -6.4520    5.6300    6.8680 N   0  0  0  0  0  0  0  0  0  0  0  0
   -6.2260    6.5240    7.8670 N   0  0  0  0  0  0  0  0  0  0  0  0
   -7.1930    6.7500    8.7820 C   0  0  0  0  0  0  0  0  0  0  0  0
   -8.4240    6.1170    8.7580 C   0  0  0  0  0  0  0  0  0  0  0  0
   -9.3950    6.3570    9.7450 N   0  0  0  0  0  0  0  0  0  0  0  0
  -10.5620    5.6840    9.7600 C   0  0  0  0  0  0  0  0  0  0  0  0
  -11.5770    5.6820   10.5960 N   0  0  0  0  0  0  0  0  0  0  0  0
  -12.4690    4.7490   10.1080 N   0  0  0  0  0  0  0  0  0  0  0  0
  -12.0160    4.1880    8.9920 N   0  0  0  0  0  0  0  0  0  0  0  0
  -10.8400    4.7900    8.7610 N   0  0  0  0  0  0  0  0  0  0  0  0
   -9.9950    4.4790    7.6090 C   0  0  0  0  0  0  0  0  0  0  0  0
   -8.6630    5.2070    7.7200 C   0  0  0  0  0  0  0  0  0  0  0  0
  -10.7490    4.8610    6.3730 C   0  0  0  0  0  0  0  0  0  0  0  0
  -11.0350    6.2020    6.1170 C   0  0  0  0  0  0  0  0  0  0  0  0
  -11.7370    6.5580    4.9650 C   0  0  0  0  0  0  0  0  0  0  0  0
  -12.1550    5.5730    4.0710 C   0  0  0  0  0  0  0  0  0  0  0  0
  -11.8700    4.2310    4.3270 C   0  0  0  0  0  0  0  0  0  0  0  0
  -11.1660    3.8760    5.4790 C   0  0  0  0  0  0  0  0  0  0  0  0
  -12.0160    7.8660    4.7150 O   0  0  0  0  0  0  0  0  0  0  0  0
   -6.8990    7.6510    9.7710 O   0  0  0  0  0  0  0  0  0  0  0  0
   -6.8893    2.9470    5.5019 C   0  0  0  0  0  0  0  0  0  0  0  0
   -7.4105    1.9832    4.2143 S   0  0  0  0  0  0  0  0  0  0  0  0
   -8.7606    2.9151    3.8843 C   0  0  0  0  0  0  0  0  0  0  0  0
   -9.6672    2.7011    2.9047 N   0  0  0  0  0  0  0  0  0  0  0  0
  -10.7031    3.5728    2.7617 C   0  0  0  0  0  0  0  0  0  0  0  0
  -11.9316    3.2721    1.4904 S   0  0  0  0  0  0  0  0  0  0  0  0
  -13.0829    2.3575    2.5810 C   0  0  0  0  0  0  0  0  0  0  0  0
  -12.4249    1.1617    3.2141 C   0  0  0  0  0  0  0  0  0  0  0  0
  -12.4119    1.0811    4.4729 O   0  0  0  0  0  0  0  0  0  0  0  0
  -11.7641    0.1498    2.4260 N   0  0  0  0  0  0  0  0  0  0  0  0
  -12.2708   -0.2407    1.1045 C   0  0  0  0  0  0  0  0  0  0  0  0
  -11.1133   -0.7336    0.2308 C   0  0  0  0  0  0  0  0  0  0  0  0
  -10.3733   -1.7396    0.8957 O   0  0  0  0  0  0  0  0  0  0  0  0
   -9.7465   -1.1926    2.0399 C   0  0  0  0  0  0  0  0  0  0  0  0
  -10.7887   -0.7394    3.0663 C   0  0  0  0  0  0  0  0  0  0  0  0
  -10.8069    4.6636    3.5805 N   0  0  0  0  0  0  0  0  0  0  0  0
   -9.8928    4.8987    4.5679 C   0  0  0  0  0  0  0  0  0  0  0  0
   -9.9943    5.9322    5.2809 O   0  0  0  0  0  0  0  0  0  0  0  0
   -8.8427    3.9862    4.7515 C   0  0  0  0  0  0  0  0  0  0  0  0
  1  3  4  0
  1 14  4  0
  1  2  1  0
  3  4  4  0
  4  5  4  0
  5  6  4  0
  5 22  1  0
  6  7  1  0
  6 14  4  0
  7  8  1  0
  8  9  4  0
  8 12  4  0
  9 10  4  0
 10 11  4  0
 11 12  4  0
 12 13  1  0
 13 14  1  0
 13 15  1  6
 15 16  4  0
 15 20  4  0
 16 17  4  0
 17 18  4  0
 17 21  1  0
 18 19  4  0
 19 20  4  0
 23 24  4  0
 24 25  4  0
 25 26  4  0
 26 27  4  0
 27 28  1  0
 28 29  1  0
 29 30  1  0
 30 31  2  0
 30 32  1  0
 32 33  1  0
 33 34  1  0
 34 35  1  0
 35 36  1  0
 36 37  1  0
 27 38  4  0
 38 39  4  0
 39 40  2  0
 39 41  4  0
 41 25  4  0
 37 32  1  0
  2 23  4  0
  2 41  4  0
M  END
$$$$

     RDKit          3D

 41 47  0  0  0  0  0  0  0  0999 V2000
   -7.6410    4.9930    6.8080 C   0  0  0  0  0  0  0  0  0  1  0  0
   -7.7310    4.0530    5.7140 C   0  0  0  0  0  0  0  0  0  2  0  0
   -6.4520    5.6300    6.8680 N   0  0  0  0  0  0  0  0  0  0  0  0
   -6.2260    6.5240    7.8670 N   0  0  0  0  0  0  0  0  0  0  0  0
   -7.1930    6.7500    8.7820 C   0  0  0  0  0  0  0  0  0  0  0  0
   -8.4240    6.1170    8.7580 C   0  0  0  0  0  0  0  0  0  0  0  0
   -9.3950    6.3570    9.7450 N   0  0  0  0  0  0  0  0  0  0  0  0
  -10.5620    5.6840    9.7600 C   0  0  0  0  0  0  0  0  0  0  0  0
  -11.5770    5.6820   10.5960 N   0  0  0  0  0  0  0  0  0  0  0  0
  -12.4690    4.7490   10.1080 N   0  0  0  0  0  0  0  0  0  0  0  0
  -12.0160    4.1880    8.9920 N   0  0  0  0  0  0  0  0  0  0  0  0
  -10.8400    4.7900    8.7610 N   0  0  0  0  0  0  0  0  0  0  0  0
   -9.9950    4.4790    7.6090 C   0  0  0  0  0  0  0  0  0  0  0  0
   -8.6630    5.2070    7.7200 C   0  0  0  0  0  0  0  0  0  0  0  0
  -10.7490    4.8610    6.3730 C   0  0  0  0  0  0  0  0  0  0  0  0
  -11.0350    6.2020    6.1170 C   0  0  0  0  0  0  0  0  0  0  0  0
  -11.7370    6.5580    4.9650 C   0  0  0  0  0  0  0  0  0  0  0  0
  -12.1550    5.5730    4.0710 C   0  0  0  0  0  0  0  0  0  0  0  0
  -11.8700    4.2310    4.3270 C   0  0  0  0  0  0  0  0  0  0  0  0
  -11.1660    3.8760    5.4790 C   0  0  0  0  0  0  0  0  0  0  0  0
  -12.0160    7.8660    4.7150 O   0  0  0  0  0  0  0  0  0  0  0  0
   -6.8990    7.6510    9.7710 O   0  0  0  0  0  0  0  0  0  0  0  0
   -6.8816    2.9545    5.4950 C   0  0  0  0  0  0  0  0  0  0  0  0
   -7.3988    1.9925    4.2049 S   0  0  0  0  0  0  0  0  0  0  0  0
   -8.7592    2.9129    3.8842 C   0  0  0  0  0  0  0  0  0  0  0  0
   -9.6615    2.7011    2.9000 N   0  0  0  0  0  0  0  0  0  0  0  0
  -10.6944    3.5755    2.7518 C   0  0  0  0  0  0  0  0  0  0  0  0
  -11.8850    3.3128    1.4370 S   0  0  0  0  0  0  0  0  0  0  0  0
  -11.0207    4.3759    0.2259 C   0  0  0  0  0  0  0  0  0  0  0  0
   -9.6371    3.8656   -0.0826 C   0  0  0  0  0  0  0  0  0  0  0  0
   -8.6565    4.6071    0.1989 O   0  0  0  0  0  0  0  0  0  0  0  0
   -9.4030    2.5629   -0.6642 N   0  0  0  0  0  0  0  0  0  0  0  0
   -8.1418    1.8674   -0.3738 C   0  0  0  0  0  0  0  0  0  0  0  0
   -7.7927    0.9031   -1.5109 C   0  0  0  0  0  0  0  0  0  0  0  0
   -8.8834    0.0521   -1.8012 O   0  0  0  0  0  0  0  0  0  0  0  0
   -9.9576    0.8179   -2.3096 C   0  0  0  0  0  0  0  0  0  0  0  0
  -10.4990    1.7737   -1.2422 C   0  0  0  0  0  0  0  0  0  0  0  0
  -10.8094    4.6567    3.5819 N   0  0  0  0  0  0  0  0  0  0  0  0
   -9.8995    4.8898    4.5738 C   0  0  0  0  0  0  0  0  0  0  0  0
  -10.0064    5.9202    5.2905 O   0  0  0  0  0  0  0  0  0  0  0  0
   -8.8456    3.9814    4.7547 C   0  0  0  0  0  0  0  0  0  0  0  0
  1  3  4  0
  1 14  4  0
  1  2  1  0
  3  4  4  0
  4  5  4  0
  5  6  4  0
  5 22  1  0
  6  7  1  0
  6 14  4  0
  7  8  1  0
  8  9  4  0
  8 12  4  0
  9 10  4  0
 10 11  4  0
 11 12  4  0
 12 13  1  0
 13 14  1  0
 13 15  1  6
 15 16  4  0
 15 20  4  0
 16 17  4  0
 17 18  4  0
 17 21  1  0
 18 19  4  0
 19 20  4  0
 23 24  4  0
 24 25  4  0
 25 26  4  0
 26 27  4  0
 27 28  1  0
 28 29  1  0
 29 30  1  0
 30 31  2  0
 30 32  1  0
 32 33  1  0
 33 34  1  0
 34 35  1  0
 35 36  1  0
 36 37  1  0
 27 38  4  0
 38 39  4  0
 39 40  2  0
 39 41  4  0
 41 25  4  0
 37 32  1  0
  2 23  4  0
  2 41  4  0
M  END
$$$$

     RDKit          3D

 41 47  0  0  0  0  0  0  0  0999 V2000
   -7.6410    4.9930    6.8080 C   0  0  0  0  0  0  0  0  0  1  0  0
   -7.7310    4.0530    5.7140 C   0  0  0  0  0  0  0  0  0  2  0  0
   -6.4520    5.6300    6.8680 N   0  0  0  0  0  0  0  0  0  0  0  0
   -6.2260    6.5240    7.8670 N   0  0  0  0  0  0  0  0  0  0  0  0
   -7.1930    6.7500    8.7820 C   0  0  0  0  0  0  0  0  0  0  0  0
   -8.4240    6.1170    8.7580 C   0  0  0  0  0  0  0  0  0  0  0  0
   -9.3950    6.3570    9.7450 N   0  0  0  0  0  0  0  0  0  0  0  0
  -10.5620    5.6840    9.7600 C   0  0  0  0  0  0  0  0  0  0  0  0
  -11.5770    5.6820   10.5960 N   0  0  0  0  0  0  0  0  0  0  0  0
  -12.4690    4.7490   10.1080 N   0  0  0  0  0  0  0  0  0  0  0  0
  -12.0160    4.1880    8.9920 N   0  0  0  0  0  0  0  0  0  0  0  0
  -10.8400    4.7900    8.7610 N   0  0  0  0  0  0  0  0  0  0  0  0
   -9.9950    4.4790    7.6090 C   0  0  0  0  0  0  0  0  0  0  0  0
   -8.6630    5.2070    7.7200 C   0  0  0  0  0  0  0  0  0  0  0  0
  -10.7490    4.8610    6.3730 C   0  0  0  0  0  0  0  0  0  0  0  0
  -11.0350    6.2020    6.1170 C   0  0  0  0  0  0  0  0  0  0  0  0
  -11.7370    6.5580    4.9650 C   0  0  0  0  0  0  0  0  0  0  0  0
  -12.1550    5.5730    4.0710 C   0  0  0  0  0  0  0  0  0  0  0  0
  -11.8700    4.2310    4.3270 C   0  0  0  0  0  0  0  0  0  0  0  0
  -11.1660    3.8760    5.4790 C   0  0  0  0  0  0  0  0  0  0  0  0
  -12.0160    7.8660    4.7150 O   0  0  0  0  0  0  0  0  0  0  0  0
   -6.8990    7.6510    9.7710 O   0  0  0  0  0  0  0  0  0  0  0  0
   -6.9095    2.9281    5.5216 C   0  0  0  0  0  0  0  0  0  0  0  0
   -7.4170    1.9859    4.2120 S   0  0  0  0  0  0  0  0  0  0  0  0
   -8.7356    2.9496    3.8508 C   0  0  0  0  0  0  0  0  0  0  0  0
   -9.6106    2.7719    2.8354 N   0  0  0  0  0  0  0  0  0  0  0  0
  -10.6102    3.6794    2.6604 C   0  0  0  0  0  0  0  0  0  0  0  0
  -11.7652    3.4682    1.3045 S   0  0  0  0  0  0  0  0  0  0  0  0
  -10.8138    4.5037    0.1360 C   0  0  0  0  0  0  0  0  0  0  0  0
   -9.4836    3.8816   -0.2001 C   0  0  0  0  0  0  0  0  0  0  0  0
   -8.4400    4.5054    0.1358 O   0  0  0  0  0  0  0  0  0  0  0  0
   -9.3692    2.6077   -0.8780 N   0  0  0  0  0  0  0  0  0  0  0  0
  -10.5488    1.9092   -1.4087 C   0  0  0  0  0  0  0  0  0  0  0  0
  -10.1470    1.0149   -2.5859 C   0  0  0  0  0  0  0  0  0  0  0  0
   -9.0735    0.1663   -2.2306 O   0  0  0  0  0  0  0  0  0  0  0  0
   -7.9217    0.9454   -1.9748 C   0  0  0  0  0  0  0  0  0  0  0  0
   -8.1281    1.8312   -0.7429 C   0  0  0  0  0  0  0  0  0  0  0  0
  -10.7192    4.7581    3.4951 N   0  0  0  0  0  0  0  0  0  0  0  0
   -9.8361    4.9566    4.5178 C   0  0  0  0  0  0  0  0  0  0  0  0
   -9.9374    5.9832    5.2413 O   0  0  0  0  0  0  0  0  0  0  0  0
   -8.8160    4.0164    4.7238 C   0  0  0  0  0  0  0  0  0  0  0  0
  1  3  4  0
  1 14  4  0
  1  2  1  0
  3  4  4  0
  4  5  4  0
  5  6  4  0
  5 22  1  0
  6  7  1  0
  6 14  4  0
  7  8  1  0
  8  9  4  0
  8 12  4  0
  9 10  4  0
 10 11  4  0
 11 12  4  0
 12 13  1  0
 13 14  1  0
 13 15  1  6
 15 16  4  0
 15 20  4  0
 16 17  4  0
 17 18  4  0
 17 21  1  0
 18 19  4  0
 19 20  4  0
 23 24  4  0
 24 25  4  0
 25 26  4  0
 26 27  4  0
 27 28  1  0
 28 29  1  0
 29 30  1  0
 30 31  2  0
 30 32  1  0
 32 33  1  0
 33 34  1  0
 34 35  1  0
 35 36  1  0
 36 37  1  0
 27 38  4  0
 38 39  4  0
 39 40  2  0
 39 41  4  0
 41 25  4  0
 37 32  1  0
  2 23  4  0
  2 41  4  0
M  END
$$$$

     RDKit          3D

 45 51  0  0  0  0  0  0  0  0999 V2000
   -7.6410    4.9930    6.8080 C   0  0  0  0  0  0  0  0  0  1  0  0
   -7.7310    4.0530    5.7140 C   0  0  0  0  0  0  0  0  0  2  0  0
   -6.4520    5.6300    6.8680 N   0  0  0  0  0  0  0  0  0  0  0  0
   -6.2260    6.5240    7.8670 N   0  0  0  0  0  0  0  0  0  0  0  0
   -7.1930    6.7500    8.7820 C   0  0  0  0  0  0  0  0  0  0  0  0
   -8.4240    6.1170    8.7580 C   0  0  0  0  0  0  0  0  0  0  0  0
   -9.3950    6.3570    9.7450 N   0  0  0  0  0  0  0  0  0  0  0  0
  -10.5620    5.6840    9.7600 C   0  0  0  0  0  0  0  0  0  0  0  0
  -11.5770    5.6820   10.5960 N   0  0  0  0  0  0  0  0  0  0  0  0
  -12.4690    4.7490   10.1080 N   0  0  0  0  0  0  0  0  0  0  0  0
  -12.0160    4.1880    8.9920 N   0  0  0  0  0  0  0  0  0  0  0  0
  -10.8400    4.7900    8.7610 N   0  0  0  0  0  0  0  0  0  0  0  0
   -9.9950    4.4790    7.6090 C   0  0  0  0  0  0  0  0  0  0  0  0
   -8.6630    5.2070    7.7200 C   0  0  0  0  0  0  0  0  0  0  0  0
  -10.7490    4.8610    6.3730 C   0  0  0  0  0  0  0  0  0  0  0  0
  -11.0350    6.2020    6.1170 C   0  0  0  0  0  0  0  0  0  0  0  0
  -11.7370    6.5580    4.9650 C   0  0  0  0  0  0  0  0  0  0  0  0
  -12.1550    5.5730    4.0710 C   0  0  0  0  0  0  0  0  0  0  0  0
  -11.8700    4.2310    4.3270 C   0  0  0  0  0  0  0  0  0  0  0  0
  -11.1660    3.8760    5.4790 C   0  0  0  0  0  0  0  0  0  0  0  0
  -12.0160    7.8660    4.7150 O   0  0  0  0  0  0  0  0  0  0  0  0
   -6.8990    7.6510    9.7710 O   0  0  0  0  0  0  0  0  0  0  0  0
   -6.7926    3.2052    5.2487 N   0  0  0  0  0  0  0  0  0  0  0  0
   -7.2774    2.4936    4.2406 N   0  0  0  0  0  0  0  0  0  0  0  0
   -8.5617    2.8621    4.0797 C   0  0  0  0  0  0  0  0  0  0  0  0
   -9.6090    2.2476    2.7575 S   0  0  0  0  0  0  0  0  0  0  0  0
  -10.0200    0.6758    3.5930 C   0  0  0  0  0  0  0  0  0  0  0  0
  -11.1680    0.8602    4.5521 C   0  0  0  0  0  0  0  0  0  0  0  0
  -10.9957    1.5798    5.5712 O   0  0  0  0  0  0  0  0  0  0  0  0
  -12.4580    0.2572    4.3329 N   0  0  0  0  0  0  0  0  0  0  0  0
  -12.6729   -0.9427    3.5706 C   0  0  0  0  0  0  0  0  0  0  0  0
  -11.7855   -2.0292    3.6609 C   0  0  0  0  0  0  0  0  0  0  0  0
  -12.0109   -3.1897    2.9192 C   0  0  0  0  0  0  0  0  0  0  0  0
  -13.1442   -3.2957    2.0949 C   0  0  0  0  0  0  0  0  0  0  0  0
  -13.3983   -4.5470    1.2997 C   0  0  0  0  0  0  0  0  0  0  0  0
  -14.5652   -5.2839    1.8359 N   0  0  0  0  0  0  0  0  0  0  0  0
  -14.2746   -5.9702    3.1140 C   0  0  0  0  0  0  0  0  0  0  0  0
  -13.4679   -7.2651    2.9037 C   0  0  0  0  0  0  0  0  0  0  0  0
  -14.1140   -8.1328    1.9938 O   0  0  0  0  0  0  0  0  0  0  0  0
  -14.2368   -7.4981    0.7368 C   0  0  0  0  0  0  0  0  0  0  0  0
  -15.1133   -6.2401    0.8526 C   0  0  0  0  0  0  0  0  0  0  0  0
  -14.0523   -2.2270    2.0353 C   0  0  0  0  0  0  0  0  0  0  0  0
  -13.8205   -1.0609    2.7731 C   0  0  0  0  0  0  0  0  0  0  0  0
   -8.9142    3.7997    4.9766 N   0  0  0  0  0  0  0  0  0  0  0  0
  -10.0357    4.6487    4.8940 N   0  0  0  0  0  0  0  0  0  0  0  0
  1  3  4  0
  1 14  4  0
  1  2  1  0
  3  4  4  0
  4  5  4  0
  5  6  4  0
  5 22  1  0
  6  7  1  0
  6 14  4  0
  7  8  1  0
  8  9  4  0
  8 12  4  0
  9 10  4  0
 10 11  4  0
 11 12  4  0
 12 13  1  0
 13 14  1  0
 13 15  1  6
 15 16  4  0
 15 20  4  0
 16 17  4  0
 17 18  4  0
 17 21  1  0
 18 19  4  0
 19 20  4  0
 23 24  4  0
 24 25  4  0
 25 26  1  0
 26 27  1  0
 27 28  1  0
 28 29  2  0
 28 30  1  0
 30 31  1  0
 31 32  4  0
 32 33  4  0
 33 34  4  0
 34 35  1  0
 35 36  1  0
 36 37  1  0
 37 38  1  0
 38 39  1  0
 39 40  1  0
 40 41  1  0
 34 42  4  0
 42 43  4  0
 25 44  4  0
 44 45  1  0
 43 31  4  0
 41 36  1  0
  2 23  4  0
  2 44  4  0
M  END
$$$$

     RDKit          3D

 31 35  0  0  0  0  0  0  0  0999 V2000
   -7.6410    4.9930    6.8080 C   0  0  0  0  0  0  0  0  0  1  0  0
   -7.7310    4.0530    5.7140 C   0  0  0  0  0  0  0  0  0  2  0  0
   -6.4520    5.6300    6.8680 N   0  0  0  0  0  0  0  0  0  0  0  0
   -6.2260    6.5240    7.8670 N   0  0  0  0  0  0  0  0  0  0  0  0
   -7.1930    6.7500    8.7820 C   0  0  0  0  0  0  0  0  0  0  0  0
   -8.4240    6.1170    8.7580 C   0  0  0  0  0  0  0  0  0  0  0  0
   -9.3950    6.3570    9.7450 N   0  0  0  0  0  0  0  0  0  0  0  0
  -10.5620    5.6840    9.7600 C   0  0  0  0  0  0  0  0  0  0  0  0
  -11.5770    5.6820   10.5960 N   0  0  0  0  0  0  0  0  0  0  0  0
  -12.4690    4.7490   10.1080 N   0  0  0  0  0  0  0  0  0  0  0  0
  -12.0160    4.1880    8.9920 N   0  0  0  0  0  0  0  0  0  0  0  0
  -10.8400    4.7900    8.7610 N   0  0  0  0  0  0  0  0  0  0  0  0
   -9.9950    4.4790    7.6090 C   0  0  0  0  0  0  0  0  0  0  0  0
   -8.6630    5.2070    7.7200 C   0  0  0  0  0  0  0  0  0  0  0  0
  -10.7490    4.8610    6.3730 C   0  0  0  0  0  0  0  0  0  0  0  0
  -11.0350    6.2020    6.1170 C   0  0  0  0  0  0  0  0  0  0  0  0
  -11.7370    6.5580    4.9650 C   0  0  0  0  0  0  0  0  0  0  0  0
  -12.1550    5.5730    4.0710 C   0  0  0  0  0  0  0  0  0  0  0  0
  -11.8700    4.2310    4.3270 C   0  0  0  0  0  0  0  0  0  0  0  0
  -11.1660    3.8760    5.4790 C   0  0  0  0  0  0  0  0  0  0  0  0
  -12.0160    7.8660    4.7150 O   0  0  0  0  0  0  0  0  0  0  0  0
   -6.8990    7.6510    9.7710 O   0  0  0  0  0  0  0  0  0  0  0  0
   -6.7567    3.1840    5.3349 N   0  0  0  0  0  0  0  0  0  0  0  0
   -7.0804    2.3594    4.3133 C   0  0  0  0  0  0  0  0  0  0  0  0
   -6.1211    1.3927    3.6729 C   0  0  0  0  0  0  0  0  0  0  0  0
   -5.1781    0.7640    4.7081 C   0  0  0  0  0  0  0  0  0  0  0  0
   -5.3622    2.0406    2.4918 C   0  0  0  0  0  0  0  0  0  0  0  0
   -4.5226    3.1739    2.8919 N   0  0  0  0  0  0  0  0  0  0  0  0
   -8.6471    2.6421    3.7739 S   0  0  0  0  0  0  0  0  0  0  0  0
   -8.9357    3.8557    4.9025 C   0  0  0  0  0  0  0  0  0  0  0  0
  -10.2103    4.6343    4.9856 C   0  0  0  0  0  0  0  0  0  0  0  0
  1  3  4  0
  1 14  4  0
  1  2  1  0
  3  4  4  0
  4  5  4  0
  5  6  4  0
  5 22  1  0
  6  7  1  0
  6 14  4  0
  7  8  1  0
  8  9  4  0
  8 12  4  0
  9 10  4  0
 10 11  4  0
 11 12  4  0
 12 13  1  0
 13 14  1  0
 13 15  1  6
 15 16  4  0
 15 20  4  0
 16 17  4  0
 17 18  4  0
 17 21  1  0
 18 19  4  0
 19 20  4  0
 23 24  4  0
 24 25  1  0
 25 26  1  0
 25 27  1  0
 27 28  1  0
 24 29  4  0
 29 30  4  0
 30 31  1  0
  2 23  4  0
  2 30  4  0
M  CHG  1  28   1
M  END
$$$$

     RDKit          3D

 48 54  0  0  0  0  0  0  0  0999 V2000
   -7.6410    4.9930    6.8080 C   0  0  0  0  0  0  0  0  0  1  0  0
   -7.7310    4.0530    5.7140 C   0  0  0  0  0  0  0  0  0  2  0  0
   -6.4520    5.6300    6.8680 N   0  0  0  0  0  0  0  0  0  0  0  0
   -6.2260    6.5240    7.8670 N   0  0  0  0  0  0  0  0  0  0  0  0
   -7.1930    6.7500    8.7820 C   0  0  0  0  0  0  0  0  0  0  0  0
   -8.4240    6.1170    8.7580 C   0  0  0  0  0  0  0  0  0  0  0  0
   -9.3950    6.3570    9.7450 N   0  0  0  0  0  0  0  0  0  0  0  0
  -10.5620    5.6840    9.7600 C   0  0  0  0  0  0  0  0  0  0  0  0
  -11.5770    5.6820   10.5960 N   0  0  0  0  0  0  0  0  0  0  0  0
  -12.4690    4.7490   10.1080 N   0  0  0  0  0  0  0  0  0  0  0  0
  -12.0160    4.1880    8.9920 N   0  0  0  0  0  0  0  0  0  0  0  0
  -10.8400    4.7900    8.7610 N   0  0  0  0  0  0  0  0  0  0  0  0
   -9.9950    4.4790    7.6090 C   0  0  0  0  0  0  0  0  0  0  0  0
   -8.6630    5.2070    7.7200 C   0  0  0  0  0  0  0  0  0  0  0  0
  -10.7490    4.8610    6.3730 C   0  0  0  0  0  0  0  0  0  0  0  0
  -11.0350    6.2020    6.1170 C   0  0  0  0  0  0  0  0  0  0  0  0
  -11.7370    6.5580    4.9650 C   0  0  0  0  0  0  0  0  0  0  0  0
  -12.1550    5.5730    4.0710 C   0  0  0  0  0  0  0  0  0  0  0  0
  -11.8700    4.2310    4.3270 C   0  0  0  0  0  0  0  0  0  0  0  0
  -11.1660    3.8760    5.4790 C   0  0  0  0  0  0  0  0  0  0  0  0
  -12.0160    7.8660    4.7150 O   0  0  0  0  0  0  0  0  0  0  0  0
   -6.8990    7.6510    9.7710 O   0  0  0  0  0  0  0  0  0  0  0  0
   -6.8268    3.1115    5.3727 N   0  0  0  0  0  0  0  0  0  0  0  0
   -7.2593    2.3939    4.3473 N   0  0  0  0  0  0  0  0  0  0  0  0
   -6.4955    1.3262    3.7460 C   0  0  0  0  0  0  0  0  0  0  0  0
   -5.1315    1.1733    4.0615 C   0  0  0  0  0  0  0  0  0  0  0  0
   -4.3819    0.1381    3.4950 C   0  0  0  0  0  0  0  0  0  0  0  0
   -4.9829   -0.7574    2.6078 C   0  0  0  0  0  0  0  0  0  0  0  0
   -6.3348   -0.6217    2.2882 C   0  0  0  0  0  0  0  0  0  0  0  0
   -7.0897    0.4123    2.8516 C   0  0  0  0  0  0  0  0  0  0  0  0
   -8.4819    2.8305    3.9798 C   0  0  0  0  0  0  0  0  0  0  0  0
   -8.8450    3.8822    4.8045 C   0  0  0  0  0  0  0  0  0  0  0  0
  -10.0981    4.6748    4.7668 C   0  0  0  0  0  0  0  0  0  0  0  0
  -10.8345    4.9099    3.6645 C   0  0  0  0  0  0  0  0  0  0  0  0
  -12.1077    5.5716    3.8118 C   0  0  0  0  0  0  0  0  0  0  0  0
  -13.1304    6.1015    3.9295 N   0  0  0  0  0  0  0  0  0  0  0  0
  -10.3722    4.6064    2.2922 C   0  0  0  0  0  0  0  0  0  0  0  0
   -9.1933    4.9005    1.9573 O   0  0  0  0  0  0  0  0  0  0  0  0
  -11.2644    4.0718    1.3026 N   0  0  0  0  0  0  0  0  0  0  0  0
  -12.3600    3.1838    1.5841 C   0  0  0  0  0  0  0  0  0  0  0  0
  -12.3396    2.3154    2.6892 C   0  0  0  0  0  0  0  0  0  0  0  0
  -13.4001    1.4354    2.9181 C   0  0  0  0  0  0  0  0  0  0  0  0
  -14.4992    1.3994    2.0420 C   0  0  0  0  0  0  0  0  0  0  0  0
  -15.6258    0.4709    2.2812 C   0  0  0  0  0  0  0  0  0  0  0  0
  -15.6090   -0.3162    3.2648 O   0  0  0  0  0  0  0  0  0  0  0  0
  -16.7242    0.4611    1.4282 O   0  0  0  0  0  0  0  0  0  0  0  0
  -14.5109    2.2572    0.9302 C   0  0  0  0  0  0  0  0  0  0  0  0
  -13.4475    3.1344    0.7008 C   0  0  0  0  0  0  0  0  0  0  0  0
  1  3  4  0
  1 14  4  0
  1  2  1  0
  3  4  4  0
  4  5  4  0
  5  6  4  0
  5 22  1  0
  6  7  1  0
  6 14  4  0
  7  8  1  0
  8  9  4  0
  8 12  4  0
  9 10  4  0
 10 11  4  0
 11 12  4  0
 12 13  1  0
 13 14  1  0
 13 15  1  6
 15 16  4  0
 15 20  4  0
 16 17  4  0
 17 18  4  0
 17 21  1  0
 18 19  4  0
 19 20  4  0
 23 24  4  0
 24 25  1  0
 25 26  4  0
 26 27  4  0
 27 28  4  0
 28 29  4  0
 29 30  4  0
 24 31  4  0
 31 32  4  0
 32 33  1  0
 33 34  2  3
 34 35  1  0
 35 36  3  0
 34 37  1  0
 37 38  2  0
 37 39  1  0
 39 40  1  0
 40 41  4  0
 41 42  4  0
 42 43  4  0
 43 44  1  0
 44 45  2  0
 44 46  1  0
 43 47  4  0
 47 48  4  0
 48 40  4  0
 30 25  4  0
  2 23  4  0
  2 32  4  0
M  CHG  1  46  -1
M  END
$$$$

     RDKit          3D

 33 38  0  0  0  0  0  0  0  0999 V2000
   -7.6410    4.9930    6.8080 C   0  0  0  0  0  0  0  0  0  1  0  0
   -7.7310    4.0530    5.7140 C   0  0  0  0  0  0  0  0  0  2  0  0
   -6.4520    5.6300    6.8680 N   0  0  0  0  0  0  0  0  0  0  0  0
   -6.2260    6.5240    7.8670 N   0  0  0  0  0  0  0  0  0  0  0  0
   -7.1930    6.7500    8.7820 C   0  0  0  0  0  0  0  0  0  0  0  0
   -8.4240    6.1170    8.7580 C   0  0  0  0  0  0  0  0  0  0  0  0
   -9.3950    6.3570    9.7450 N   0  0  0  0  0  0  0  0  0  0  0  0
  -10.5620    5.6840    9.7600 C   0  0  0  0  0  0  0  0  0  0  0  0
  -11.5770    5.6820   10.5960 N   0  0  0  0  0  0  0  0  0  0  0  0
  -12.4690    4.7490   10.1080 N   0  0  0  0  0  0  0  0  0  0  0  0
  -12.0160    4.1880    8.9920 N   0  0  0  0  0  0  0  0  0  0  0  0
  -10.8400    4.7900    8.7610 N   0  0  0  0  0  0  0  0  0  0  0  0
   -9.9950    4.4790    7.6090 C   0  0  0  0  0  0  0  0  0  0  0  0
   -8.6630    5.2070    7.7200 C   0  0  0  0  0  0  0  0  0  0  0  0
  -10.7490    4.8610    6.3730 C   0  0  0  0  0  0  0  0  0  0  0  0
  -11.0350    6.2020    6.1170 C   0  0  0  0  0  0  0  0  0  0  0  0
  -11.7370    6.5580    4.9650 C   0  0  0  0  0  0  0  0  0  0  0  0
  -12.1550    5.5730    4.0710 C   0  0  0  0  0  0  0  0  0  0  0  0
  -11.8700    4.2310    4.3270 C   0  0  0  0  0  0  0  0  0  0  0  0
  -11.1660    3.8760    5.4790 C   0  0  0  0  0  0  0  0  0  0  0  0
  -12.0160    7.8660    4.7150 O   0  0  0  0  0  0  0  0  0  0  0  0
   -6.8990    7.6510    9.7710 O   0  0  0  0  0  0  0  0  0  0  0  0
   -6.6750    3.3086    5.1950 C   0  0  0  0  0  0  0  0  0  0  0  0
   -6.8351    2.3710    4.1722 C   0  0  0  0  0  0  0  0  0  0  0  0
   -5.7468    1.6469    3.6630 C   0  0  0  0  0  0  0  0  0  0  0  0
   -5.9475    0.7126    2.6400 C   0  0  0  0  0  0  0  0  0  0  0  0
   -4.5880   -0.1941    2.0022 Cl  0  0  0  0  0  0  0  0  0  0  0  0
   -7.2321    0.5007    2.1254 C   0  0  0  0  0  0  0  0  0  0  0  0
   -8.3195    1.2209    2.6300 C   0  0  0  0  0  0  0  0  0  0  0  0
   -8.1275    2.1566    3.6522 C   0  0  0  0  0  0  0  0  0  0  0  0
   -9.1615    2.8428    4.1266 O   0  0  0  0  0  0  0  0  0  0  0  0
   -9.0463    3.7436    5.0990 C   0  0  0  0  0  0  0  0  0  0  0  0
  -10.0739    4.3737    5.4635 O   0  0  0  0  0  0  0  0  0  0  0  0
  1  3  4  0
  1 14  4  0
  1  2  1  0
  3  4  4  0
  4  5  4  0
  5  6  4  0
  5 22  1  0
  6  7  1  0
  6 14  4  0
  7  8  1  0
  8  9  4  0
  8 12  4  0
  9 10  4  0
 10 11  4  0
 11 12  4  0
 12 13  1  0
 13 14  1  0
 13 15  1  6
 15 16  4  0
 15 20  4  0
 16 17  4  0
 17 18  4  0
 17 21  1  0
 18 19  4  0
 19 20  4  0
 23 24  4  0
 24 25  4  0
 25 26  4  0
 26 27  1  0
 26 28  4  0
 28 29  4  0
 29 30  4  0
 30 31  4  0
 31 32  4  0
 32 33  2  0
 30 24  4  0
  2 23  4  0
  2 32  4  0
M  END
$$$$

     RDKit          3D

 41 46  0  0  0  0  0  0  0  0999 V2000
   -7.6410    4.9930    6.8080 C   0  0  0  0  0  0  0  0  0  1  0  0
   -7.7310    4.0530    5.7140 C   0  0  0  0  0  0  0  0  0  2  0  0
   -6.4520    5.6300    6.8680 N   0  0  0  0  0  0  0  0  0  0  0  0
   -6.2260    6.5240    7.8670 N   0  0  0  0  0  0  0  0  0  0  0  0
   -7.1930    6.7500    8.7820 C   0  0  0  0  0  0  0  0  0  0  0  0
   -8.4240    6.1170    8.7580 C   0  0  0  0  0  0  0  0  0  0  0  0
   -9.3950    6.3570    9.7450 N   0  0  0  0  0  0  0  0  0  0  0  0
  -10.5620    5.6840    9.7600 C   0  0  0  0  0  0  0  0  0  0  0  0
  -11.5770    5.6820   10.5960 N   0  0  0  0  0  0  0  0  0  0  0  0
  -12.4690    4.7490   10.1080 N   0  0  0  0  0  0  0  0  0  0  0  0
  -12.0160    4.1880    8.9920 N   0  0  0  0  0  0  0  0  0  0  0  0
  -10.8400    4.7900    8.7610 N   0  0  0  0  0  0  0  0  0  0  0  0
   -9.9950    4.4790    7.6090 C   0  0  0  0  0  0  0  0  0  0  0  0
   -8.6630    5.2070    7.7200 C   0  0  0  0  0  0  0  0  0  0  0  0
  -10.7490    4.8610    6.3730 C   0  0  0  0  0  0  0  0  0  0  0  0
  -11.0350    6.2020    6.1170 C   0  0  0  0  0  0  0  0  0  0  0  0
  -11.7370    6.5580    4.9650 C   0  0  0  0  0  0  0  0  0  0  0  0
  -12.1550    5.5730    4.0710 C   0  0  0  0  0  0  0  0  0  0  0  0
  -11.8700    4.2310    4.3270 C   0  0  0  0  0  0  0  0  0  0  0  0
  -11.1660    3.8760    5.4790 C   0  0  0  0  0  0  0  0  0  0  0  0
  -12.0160    7.8660    4.7150 O   0  0  0  0  0  0  0  0  0  0  0  0
   -6.8990    7.6510    9.7710 O   0  0  0  0  0  0  0  0  0  0  0  0
   -6.8197    3.1225    5.3553 N   0  0  0  0  0  0  0  0  0  0  0  0
   -7.2559    2.4455    4.3038 N   0  0  0  0  0  0  0  0  0  0  0  0
   -8.4777    2.9287    4.0100 C   0  0  0  0  0  0  0  0  0  0  0  0
   -9.4367    2.3840    2.5950 S   0  0  0  0  0  0  0  0  0  0  0  0
  -10.1417    0.9488    3.4727 C   0  0  0  0  0  0  0  0  0  0  0  0
  -11.2026    0.3202    2.6262 C   0  0  0  0  0  0  0  0  0  0  0  0
  -12.3744    0.1948    3.0855 O   0  0  0  0  0  0  0  0  0  0  0  0
  -10.8857   -0.1479    1.3076 N   0  0  0  0  0  0  0  0  0  0  0  0
  -11.8820   -0.4874    0.3297 C   0  0  0  0  0  0  0  0  0  0  0  0
  -11.7542   -1.6942   -0.3783 C   0  0  0  0  0  0  0  0  0  0  0  0
  -12.6938   -2.0495   -1.3514 C   0  0  0  0  0  0  0  0  0  0  0  0
  -13.7694   -1.1995   -1.6301 C   0  0  0  0  0  0  0  0  0  0  0  0
  -15.0532   -1.6855   -2.9605 Br  0  0  0  0  0  0  0  0  0  0  0  0
  -13.8908    0.0174   -0.9549 C   0  0  0  0  0  0  0  0  0  0  0  0
  -12.9474    0.3889    0.0131 C   0  0  0  0  0  0  0  0  0  0  0  0
  -13.0699    2.0033    0.7061 Cl  0  0  0  0  0  0  0  0  0  0  0  0
   -8.8503    3.9077    4.8612 N   0  0  0  0  0  0  0  0  0  0  0  0
   -9.9896    4.8192    4.7011 C   0  0  0  0  0  0  0  0  0  0  0  0
   -9.6503    5.9257    3.7097 C   0  0  0  0  0  0  0  0  0  0  0  0
  1  3  4  0
  1 14  4  0
  1  2  1  0
  3  4  4  0
  4  5  4  0
  5  6  4  0
  5 22  1  0
  6  7  1  0
  6 14  4  0
  7  8  1  0
  8  9  4  0
  8 12  4  0
  9 10  4  0
 10 11  4  0
 11 12  4  0
 12 13  1  0
 13 14  1  0
 13 15  1  6
 15 16  4  0
 15 20  4  0
 16 17  4  0
 17 18  4  0
 17 21  1  0
 18 19  4  0
 19 20  4  0
 23 24  4  0
 24 25  4  0
 25 26  1  0
 26 27  1  0
 27 28  1  0
 28 29  2  0
 28 30  1  0
 30 31  1  0
 31 32  4  0
 32 33  4  0
 33 34  4  0
 34 35  1  0
 34 36  4  0
 36 37  4  0
 37 38  1  0
 25 39  4  0
 39 40  1  0
 40 41  1  0
 37 31  4  0
  2 23  4  0
  2 39  4  0
M  END
$$$$

     RDKit          3D

 44 50  0  0  0  0  0  0  0  0999 V2000
   -7.6410    4.9930    6.8080 C   0  0  0  0  0  0  0  0  0  1  0  0
   -7.7310    4.0530    5.7140 C   0  0  0  0  0  0  0  0  0  2  0  0
   -6.4520    5.6300    6.8680 N   0  0  0  0  0  0  0  0  0  0  0  0
   -6.2260    6.5240    7.8670 N   0  0  0  0  0  0  0  0  0  0  0  0
   -7.1930    6.7500    8.7820 C   0  0  0  0  0  0  0  0  0  0  0  0
   -8.4240    6.1170    8.7580 C   0  0  0  0  0  0  0  0  0  0  0  0
   -9.3950    6.3570    9.7450 N   0  0  0  0  0  0  0  0  0  0  0  0
  -10.5620    5.6840    9.7600 C   0  0  0  0  0  0  0  0  0  0  0  0
  -11.5770    5.6820   10.5960 N   0  0  0  0  0  0  0  0  0  0  0  0
  -12.4690    4.7490   10.1080 N   0  0  0  0  0  0  0  0  0  0  0  0
  -12.0160    4.1880    8.9920 N   0  0  0  0  0  0  0  0  0  0  0  0
  -10.8400    4.7900    8.7610 N   0  0  0  0  0  0  0  0  0  0  0  0
   -9.9950    4.4790    7.6090 C   0  0  0  0  0  0  0  0  0  0  0  0
   -8.6630    5.2070    7.7200 C   0  0  0  0  0  0  0  0  0  0  0  0
  -10.7490    4.8610    6.3730 C   0  0  0  0  0  0  0  0  0  0  0  0
  -11.0350    6.2020    6.1170 C   0  0  0  0  0  0  0  0  0  0  0  0
  -11.7370    6.5580    4.9650 C   0  0  0  0  0  0  0  0  0  0  0  0
  -12.1550    5.5730    4.0710 C   0  0  0  0  0  0  0  0  0  0  0  0
  -11.8700    4.2310    4.3270 C   0  0  0  0  0  0  0  0  0  0  0  0
  -11.1660    3.8760    5.4790 C   0  0  0  0  0  0  0  0  0  0  0  0
  -12.0160    7.8660    4.7150 O   0  0  0  0  0  0  0  0  0  0  0  0
   -6.8990    7.6510    9.7710 O   0  0  0  0  0  0  0  0  0  0  0  0
   -8.6788    4.1953    4.6224 C   0  0  0  0  0  0  0  0  0  0  0  0
   -9.6138    5.3498    4.4491 C   0  0  0  0  0  0  0  0  0  0  0  0
   -8.5838    2.8852    3.5575 S   0  0  0  0  0  0  0  0  0  0  0  0
   -7.4065    2.0857    4.4408 C   0  0  0  0  0  0  0  0  0  0  0  0
   -6.8355    0.9035    4.1323 N   0  0  0  0  0  0  0  0  0  0  0  0
   -5.9009    0.3772    4.9689 C   0  0  0  0  0  0  0  0  0  0  0  0
   -5.5484    1.0196    6.1384 N   0  0  0  0  0  0  0  0  0  0  0  0
   -4.5086    0.4570    7.0380 C   0  0  0  0  0  0  0  0  0  0  0  0
   -4.5061   -1.0802    7.1005 C   0  0  0  0  0  0  0  0  0  0  0  0
   -3.1478    0.9916    6.6688 C   0  0  0  0  0  0  0  0  0  0  0  0
   -2.5664    1.7798    7.4629 O   0  0  0  0  0  0  0  0  0  0  0  0
   -2.5411    0.6521    5.4102 N   0  0  0  0  0  0  0  0  0  0  0  0
   -1.1807    0.9608    5.0630 C   0  0  0  0  0  0  0  0  0  0  0  0
   -0.1519    0.9309    6.0222 C   0  0  0  0  0  0  0  0  0  0  0  0
    1.1667    1.2112    5.6516 C   0  0  0  0  0  0  0  0  0  0  0  0
    1.4764    1.5089    4.3212 C   0  0  0  0  0  0  0  0  0  0  0  0
    2.7939    1.7886    3.9673 O   0  0  0  0  0  0  0  0  0  0  0  0
    0.4605    1.5180    3.3574 C   0  0  0  0  0  0  0  0  0  0  0  0
   -0.8588    1.2388    3.7257 C   0  0  0  0  0  0  0  0  0  0  0  0
   -6.1194    2.2394    6.4419 C   0  0  0  0  0  0  0  0  0  0  0  0
   -5.7983    2.8528    7.4968 O   0  0  0  0  0  0  0  0  0  0  0  0
   -7.0686    2.7944    5.5713 C   0  0  0  0  0  0  0  0  0  0  0  0
  1  3  4  0
  1 14  4  0
  1  2  1  0
  3  4  4  0
  4  5  4  0
  5  6  4  0
  5 22  1  0
  6  7  1  0
  6 14  4  0
  7  8  1  0
  8  9  4  0
  8 12  4  0
  9 10  4  0
 10 11  4  0
 11 12  4  0
 12 13  1  0
 13 14  1  0
 13 15  1  6
 15 16  4  0
 15 20  4  0
 16 17  4  0
 17 18  4  0
 17 21  1  0
 18 19  4  0
 19 20  4  0
 23 24  1  0
 23 25  4  0
 25 26  4  0
 26 27  4  0
 27 28  4  0
 28 29  4  0
 29 30  1  0
 30 31  1  0
 30 32  1  0
 32 33  2  0
 32 34  1  0
 34 35  1  0
 35 36  4  0
 36 37  4  0
 37 38  4  0
 38 39  1  0
 38 40  4  0
 40 41  4  0
 29 42  4  0
 42 43  2  0
 42 44  4  0
 44 26  4  0
 41 35  4  0
  2 23  4  0
  2 44  4  0
M  END
$$$$

     RDKit          3D

 44 50  0  0  0  0  0  0  0  0999 V2000
   -7.6410    4.9930    6.8080 C   0  0  0  0  0  0  0  0  0  1  0  0
   -7.7310    4.0530    5.7140 C   0  0  0  0  0  0  0  0  0  2  0  0
   -6.4520    5.6300    6.8680 N   0  0  0  0  0  0  0  0  0  0  0  0
   -6.2260    6.5240    7.8670 N   0  0  0  0  0  0  0  0  0  0  0  0
   -7.1930    6.7500    8.7820 C   0  0  0  0  0  0  0  0  0  0  0  0
   -8.4240    6.1170    8.7580 C   0  0  0  0  0  0  0  0  0  0  0  0
   -9.3950    6.3570    9.7450 N   0  0  0  0  0  0  0  0  0  0  0  0
  -10.5620    5.6840    9.7600 C   0  0  0  0  0  0  0  0  0  0  0  0
  -11.5770    5.6820   10.5960 N   0  0  0  0  0  0  0  0  0  0  0  0
  -12.4690    4.7490   10.1080 N   0  0  0  0  0  0  0  0  0  0  0  0
  -12.0160    4.1880    8.9920 N   0  0  0  0  0  0  0  0  0  0  0  0
  -10.8400    4.7900    8.7610 N   0  0  0  0  0  0  0  0  0  0  0  0
   -9.9950    4.4790    7.6090 C   0  0  0  0  0  0  0  0  0  0  0  0
   -8.6630    5.2070    7.7200 C   0  0  0  0  0  0  0  0  0  0  0  0
  -10.7490    4.8610    6.3730 C   0  0  0  0  0  0  0  0  0  0  0  0
  -11.0350    6.2020    6.1170 C   0  0  0  0  0  0  0  0  0  0  0  0
  -11.7370    6.5580    4.9650 C   0  0  0  0  0  0  0  0  0  0  0  0
  -12.1550    5.5730    4.0710 C   0  0  0  0  0  0  0  0  0  0  0  0
  -11.8700    4.2310    4.3270 C   0  0  0  0  0  0  0  0  0  0  0  0
  -11.1660    3.8760    5.4790 C   0  0  0  0  0  0  0  0  0  0  0  0
  -12.0160    7.8660    4.7150 O   0  0  0  0  0  0  0  0  0  0  0  0
   -6.8990    7.6510    9.7710 O   0  0  0  0  0  0  0  0  0  0  0  0
   -7.0382    2.8212    5.6016 C   0  0  0  0  0  0  0  0  0  0  0  0
   -5.9573    2.3902    6.5412 C   0  0  0  0  0  0  0  0  0  0  0  0
   -7.5415    1.9248    4.2592 S   0  0  0  0  0  0  0  0  0  0  0  0
   -8.7101    3.0304    3.7943 C   0  0  0  0  0  0  0  0  0  0  0  0
   -9.5271    2.9329    2.7249 N   0  0  0  0  0  0  0  0  0  0  0  0
  -10.4145    3.9326    2.4750 C   0  0  0  0  0  0  0  0  0  0  0  0
  -10.4874    5.0406    3.2921 N   0  0  0  0  0  0  0  0  0  0  0  0
  -11.4479    6.1182    2.9609 C   0  0  0  0  0  0  0  0  0  0  0  0
  -10.9713    6.8842    1.7196 C   0  0  0  0  0  0  0  0  0  0  0  0
  -12.8500    5.5549    2.8414 C   0  0  0  0  0  0  0  0  0  0  0  0
  -13.4481    5.2177    3.8989 O   0  0  0  0  0  0  0  0  0  0  0  0
  -13.5015    5.3835    1.5694 N   0  0  0  0  0  0  0  0  0  0  0  0
  -14.5243    4.4008    1.3315 C   0  0  0  0  0  0  0  0  0  0  0  0
  -14.5528    3.1841    2.0390 C   0  0  0  0  0  0  0  0  0  0  0  0
  -15.5461    2.2363    1.7759 C   0  0  0  0  0  0  0  0  0  0  0  0
  -16.5114    2.4829    0.7921 C   0  0  0  0  0  0  0  0  0  0  0  0
  -17.5008    1.5425    0.5176 O   0  0  0  0  0  0  0  0  0  0  0  0
  -16.4782    3.6819    0.0737 C   0  0  0  0  0  0  0  0  0  0  0  0
  -15.4870    4.6327    0.3365 C   0  0  0  0  0  0  0  0  0  0  0  0
   -9.6370    5.1516    4.3726 C   0  0  0  0  0  0  0  0  0  0  0  0
   -9.6520    6.1823    5.0990 O   0  0  0  0  0  0  0  0  0  0  0  0
   -8.7359    4.1112    4.6478 C   0  0  0  0  0  0  0  0  0  0  0  0
  1  3  4  0
  1 14  4  0
  1  2  1  0
  3  4  4  0
  4  5  4  0
  5  6  4  0
  5 22  1  0
  6  7  1  0
  6 14  4  0
  7  8  1  0
  8  9  4  0
  8 12  4  0
  9 10  4  0
 10 11  4  0
 11 12  4  0
 12 13  1  0
 13 14  1  0
 13 15  1  6
 15 16  4  0
 15 20  4  0
 16 17  4  0
 17 18  4  0
 17 21  1  0
 18 19  4  0
 19 20  4  0
 23 24  1  0
 23 25  4  0
 25 26  4  0
 26 27  4  0
 27 28  4  0
 28 29  4  0
 29 30  1  0
 30 31  1  0
 30 32  1  0
 32 33  2  0
 32 34  1  0
 34 35  1  0
 35 36  4  0
 36 37  4  0
 37 38  4  0
 38 39  1  0
 38 40  4  0
 40 41  4  0
 29 42  4  0
 42 43  2  0
 42 44  4  0
 44 26  4  0
 41 35  4  0
  2 23  4  0
  2 44  4  0
M  END
$$$$

     RDKit          3D

 44 50  0  0  0  0  0  0  0  0999 V2000
   -7.6410    4.9930    6.8080 C   0  0  0  0  0  0  0  0  0  1  0  0
   -7.7310    4.0530    5.7140 C   0  0  0  0  0  0  0  0  0  2  0  0
   -6.4520    5.6300    6.8680 N   0  0  0  0  0  0  0  0  0  0  0  0
   -6.2260    6.5240    7.8670 N   0  0  0  0  0  0  0  0  0  0  0  0
   -7.1930    6.7500    8.7820 C   0  0  0  0  0  0  0  0  0  0  0  0
   -8.4240    6.1170    8.7580 C   0  0  0  0  0  0  0  0  0  0  0  0
   -9.3950    6.3570    9.7450 N   0  0  0  0  0  0  0  0  0  0  0  0
  -10.5620    5.6840    9.7600 C   0  0  0  0  0  0  0  0  0  0  0  0
  -11.5770    5.6820   10.5960 N   0  0  0  0  0  0  0  0  0  0  0  0
  -12.4690    4.7490   10.1080 N   0  0  0  0  0  0  0  0  0  0  0  0
  -12.0160    4.1880    8.9920 N   0  0  0  0  0  0  0  0  0  0  0  0
  -10.8400    4.7900    8.7610 N   0  0  0  0  0  0  0  0  0  0  0  0
   -9.9950    4.4790    7.6090 C   0  0  0  0  0  0  0  0  0  0  0  0
   -8.6630    5.2070    7.7200 C   0  0  0  0  0  0  0  0  0  0  0  0
  -10.7490    4.8610    6.3730 C   0  0  0  0  0  0  0  0  0  0  0  0
  -11.0350    6.2020    6.1170 C   0  0  0  0  0  0  0  0  0  0  0  0
  -11.7370    6.5580    4.9650 C   0  0  0  0  0  0  0  0  0  0  0  0
  -12.1550    5.5730    4.0710 C   0  0  0  0  0  0  0  0  0  0  0  0
  -11.8700    4.2310    4.3270 C   0  0  0  0  0  0  0  0  0  0  0  0
  -11.1660    3.8760    5.4790 C   0  0  0  0  0  0  0  0  0  0  0  0
  -12.0160    7.8660    4.7150 O   0  0  0  0  0  0  0  0  0  0  0  0
   -6.8990    7.6510    9.7710 O   0  0  0  0  0  0  0  0  0  0  0  0
   -8.6976    4.1776    4.6351 C   0  0  0  0  0  0  0  0  0  0  0  0
   -9.6183    5.3428    4.4470 C   0  0  0  0  0  0  0  0  0  0  0  0
   -8.5305    2.9136    3.5249 S   0  0  0  0  0  0  0  0  0  0  0  0
   -7.3184    2.1412    4.3844 C   0  0  0  0  0  0  0  0  0  0  0  0
   -6.7014    0.9905    4.0473 N   0  0  0  0  0  0  0  0  0  0  0  0
   -5.7319    0.4932    4.8620 C   0  0  0  0  0  0  0  0  0  0  0  0
   -5.3751    1.1429    6.0254 N   0  0  0  0  0  0  0  0  0  0  0  0
   -4.3137    0.5307    6.8650 C   0  0  0  0  0  0  0  0  0  0  0  0
   -3.2236    1.5431    7.2629 C   0  0  0  0  0  0  0  0  0  0  0  0
   -4.9211   -0.1627    8.0642 C   0  0  0  0  0  0  0  0  0  0  0  0
   -5.5115    0.5184    8.9444 O   0  0  0  0  0  0  0  0  0  0  0  0
   -4.9344   -1.5947    8.1743 N   0  0  0  0  0  0  0  0  0  0  0  0
   -3.8697   -2.4458    7.7257 C   0  0  0  0  0  0  0  0  0  0  0  0
   -2.5258   -2.0855    7.9207 C   0  0  0  0  0  0  0  0  0  0  0  0
   -1.4984   -2.9334    7.4972 C   0  0  0  0  0  0  0  0  0  0  0  0
   -1.8043   -4.1569    6.8886 C   0  0  0  0  0  0  0  0  0  0  0  0
   -0.7902   -5.0160    6.4751 O   0  0  0  0  0  0  0  0  0  0  0  0
   -3.1414   -4.5254    6.7047 C   0  0  0  0  0  0  0  0  0  0  0  0
   -4.1696   -3.6779    7.1296 C   0  0  0  0  0  0  0  0  0  0  0  0
   -6.0380    2.2992    6.3908 C   0  0  0  0  0  0  0  0  0  0  0  0
   -5.7892    2.8676    7.4871 O   0  0  0  0  0  0  0  0  0  0  0  0
   -7.0137    2.8316    5.5352 C   0  0  0  0  0  0  0  0  0  0  0  0
  1  3  4  0
  1 14  4  0
  1  2  1  0
  3  4  4  0
  4  5  4  0
  5  6  4  0
  5 22  1  0
  6  7  1  0
  6 14  4  0
  7  8  1  0
  8  9  4  0
  8 12  4  0
  9 10  4  0
 10 11  4  0
 11 12  4  0
 12 13  1  0
 13 14  1  0
 13 15  1  6
 15 16  4  0
 15 20  4  0
 16 17  4  0
 17 18  4  0
 17 21  1  0
 18 19  4  0
 19 20  4  0
 23 24  1  0
 23 25  4  0
 25 26  4  0
 26 27  4  0
 27 28  4  0
 28 29  4  0
 29 30  1  0
 30 31  1  0
 30 32  1  0
 32 33  2  0
 32 34  1  0
 34 35  1  0
 35 36  4  0
 36 37  4  0
 37 38  4  0
 38 39  1  0
 38 40  4  0
 40 41  4  0
 29 42  4  0
 42 43  2  0
 42 44  4  0
 44 26  4  0
 41 35  4  0
  2 23  4  0
  2 44  4  0
M  END
$$$$

     RDKit          3D

 34 39  0  0  0  0  0  0  0  0999 V2000
   -7.6410    4.9930    6.8080 C   0  0  0  0  0  0  0  0  0  1  0  0
   -7.7310    4.0530    5.7140 C   0  0  0  0  0  0  0  0  0  2  0  0
   -6.4520    5.6300    6.8680 N   0  0  0  0  0  0  0  0  0  0  0  0
   -6.2260    6.5240    7.8670 N   0  0  0  0  0  0  0  0  0  0  0  0
   -7.1930    6.7500    8.7820 C   0  0  0  0  0  0  0  0  0  0  0  0
   -8.4240    6.1170    8.7580 C   0  0  0  0  0  0  0  0  0  0  0  0
   -9.3950    6.3570    9.7450 N   0  0  0  0  0  0  0  0  0  0  0  0
  -10.5620    5.6840    9.7600 C   0  0  0  0  0  0  0  0  0  0  0  0
  -11.5770    5.6820   10.5960 N   0  0  0  0  0  0  0  0  0  0  0  0
  -12.4690    4.7490   10.1080 N   0  0  0  0  0  0  0  0  0  0  0  0
  -12.0160    4.1880    8.9920 N   0  0  0  0  0  0  0  0  0  0  0  0
  -10.8400    4.7900    8.7610 N   0  0  0  0  0  0  0  0  0  0  0  0
   -9.9950    4.4790    7.6090 C   0  0  0  0  0  0  0  0  0  0  0  0
   -8.6630    5.2070    7.7200 C   0  0  0  0  0  0  0  0  0  0  0  0
  -10.7490    4.8610    6.3730 C   0  0  0  0  0  0  0  0  0  0  0  0
  -11.0350    6.2020    6.1170 C   0  0  0  0  0  0  0  0  0  0  0  0
  -11.7370    6.5580    4.9650 C   0  0  0  0  0  0  0  0  0  0  0  0
  -12.1550    5.5730    4.0710 C   0  0  0  0  0  0  0  0  0  0  0  0
  -11.8700    4.2310    4.3270 C   0  0  0  0  0  0  0  0  0  0  0  0
  -11.1660    3.8760    5.4790 C   0  0  0  0  0  0  0  0  0  0  0  0
  -12.0160    7.8660    4.7150 O   0  0  0  0  0  0  0  0  0  0  0  0
   -6.8990    7.6510    9.7710 O   0  0  0  0  0  0  0  0  0  0  0  0
   -6.7253    3.1708    5.2669 C   0  0  0  0  0  0  0  0  0  0  0  0
   -6.9057    2.2137    4.2477 C   0  0  0  0  0  0  0  0  0  0  0  0
   -8.1527    2.0622    3.6230 C   0  0  0  0  0  0  0  0  0  0  0  0
   -9.1996    2.8872    4.0395 C   0  0  0  0  0  0  0  0  0  0  0  0
   -9.0301    3.8188    5.0373 C   0  0  0  0  0  0  0  0  0  0  0  0
  -10.2454    4.4646    5.1941 C   0  0  0  0  0  0  0  0  0  0  0  0
  -11.1070    3.8743    4.2794 C   0  0  0  0  0  0  0  0  0  0  0  0
  -10.4634    2.9196    3.5697 N   0  0  0  0  0  0  0  0  0  0  0  0
  -11.0661    2.0557    2.5540 C   0  0  0  0  0  0  0  0  0  0  0  0
  -11.4973    0.7269    3.1798 C   0  0  0  0  0  0  0  0  0  0  0  0
  -12.1352   -0.1961    2.1338 C   0  0  0  0  0  0  0  0  0  0  0  0
  -12.5436   -1.4646    2.7361 N   0  0  0  0  0  0  0  0  0  0  0  0
  1  3  4  0
  1 14  4  0
  1  2  1  0
  3  4  4  0
  4  5  4  0
  5  6  4  0
  5 22  1  0
  6  7  1  0
  6 14  4  0
  7  8  1  0
  8  9  4  0
  8 12  4  0
  9 10  4  0
 10 11  4  0
 11 12  4  0
 12 13  1  0
 13 14  1  0
 13 15  1  6
 15 16  4  0
 15 20  4  0
 16 17  4  0
 17 18  4  0
 17 21  1  0
 18 19  4  0
 19 20  4  0
 23 24  4  0
 24 25  4  0
 25 26  4  0
 26 27  4  0
 27 28  4  0
 28 29  4  0
 29 30  4  0
 30 31  1  0
 31 32  1  0
 32 33  1  0
 33 34  1  0
 30 26  4  0
  2 23  4  0
  2 27  4  0
M  CHG  1  34   1
M  END
$$$$

     RDKit          3D

 47 54  0  0  0  0  0  0  0  0999 V2000
   -7.6410    4.9930    6.8080 C   0  0  0  0  0  0  0  0  0  1  0  0
   -7.7310    4.0530    5.7140 C   0  0  0  0  0  0  0  0  0  2  0  0
   -6.4520    5.6300    6.8680 N   0  0  0  0  0  0  0  0  0  0  0  0
   -6.2260    6.5240    7.8670 N   0  0  0  0  0  0  0  0  0  0  0  0
   -7.1930    6.7500    8.7820 C   0  0  0  0  0  0  0  0  0  0  0  0
   -8.4240    6.1170    8.7580 C   0  0  0  0  0  0  0  0  0  0  0  0
   -9.3950    6.3570    9.7450 N   0  0  0  0  0  0  0  0  0  0  0  0
  -10.5620    5.6840    9.7600 C   0  0  0  0  0  0  0  0  0  0  0  0
  -11.5770    5.6820   10.5960 N   0  0  0  0  0  0  0  0  0  0  0  0
  -12.4690    4.7490   10.1080 N   0  0  0  0  0  0  0  0  0  0  0  0
  -12.0160    4.1880    8.9920 N   0  0  0  0  0  0  0  0  0  0  0  0
  -10.8400    4.7900    8.7610 N   0  0  0  0  0  0  0  0  0  0  0  0
   -9.9950    4.4790    7.6090 C   0  0  0  0  0  0  0  0  0  0  0  0
   -8.6630    5.2070    7.7200 C   0  0  0  0  0  0  0  0  0  0  0  0
  -10.7490    4.8610    6.3730 C   0  0  0  0  0  0  0  0  0  0  0  0
  -11.0350    6.2020    6.1170 C   0  0  0  0  0  0  0  0  0  0  0  0
  -11.7370    6.5580    4.9650 C   0  0  0  0  0  0  0  0  0  0  0  0
  -12.1550    5.5730    4.0710 C   0  0  0  0  0  0  0  0  0  0  0  0
  -11.8700    4.2310    4.3270 C   0  0  0  0  0  0  0  0  0  0  0  0
  -11.1660    3.8760    5.4790 C   0  0  0  0  0  0  0  0  0  0  0  0
  -12.0160    7.8660    4.7150 O   0  0  0  0  0  0  0  0  0  0  0  0
   -6.8990    7.6510    9.7710 O   0  0  0  0  0  0  0  0  0  0  0  0
   -6.8477    2.9532    5.5342 C   0  0  0  0  0  0  0  0  0  0  0  0
   -6.9603    2.0154    4.4891 C   0  0  0  0  0  0  0  0  0  1  0  0
   -5.9573    0.9415    4.3394 C   0  0  0  0  0  0  0  0  0  2  0  0
   -5.6841    0.0609    5.4073 C   0  0  0  0  0  0  0  0  0  0  0  0
   -4.7211   -0.9618    5.2723 C   0  0  0  0  0  0  0  0  0  0  0  0
   -4.0094   -1.1243    4.0614 C   0  0  0  0  0  0  0  0  0  0  0  0
   -3.0295   -2.1110    3.8731 O   0  0  0  0  0  0  0  0  0  0  0  0
   -2.9814   -3.3438    4.5356 C   0  0  0  0  0  0  0  0  0  0  0  0
   -1.7480   -4.1753    4.4416 C   0  0  0  0  0  0  0  0  0  0  0  0
   -3.9904   -3.8005    5.1374 O   0  0  0  0  0  0  0  0  0  0  0  0
   -4.2794   -0.2191    3.0352 C   0  0  0  0  0  0  0  0  0  0  0  0
   -3.7184   -0.1008    1.7809 C   0  0  0  0  0  0  0  0  0  0  0  0
   -4.3482    0.9929    1.2000 C   0  0  0  0  0  0  0  0  0  0  0  0
   -5.2564    1.5278    2.0457 N   0  0  0  0  0  0  0  0  0  0  0  0
   -5.2147    0.7760    3.1618 C   0  0  0  0  0  0  0  0  0  0  0  0
   -8.0601    2.1337    3.6298 C   0  0  0  0  0  0  0  0  0  0  0  0
   -8.4157    1.3025    2.6325 N   0  0  0  0  0  0  0  0  0  0  0  0
   -9.5727    1.7888    2.1339 C   0  0  0  0  0  0  0  0  0  0  0  0
   -9.9604    2.9321    2.8192 C   0  0  0  0  0  0  0  0  0  0  0  0
   -8.9798    3.1430    3.7693 C   0  0  0  0  0  0  0  0  0  0  0  0
   -8.8702    4.1129    4.7756 C   0  0  0  0  0  0  0  0  0  0  0  0
   -9.7951    5.1574    4.9093 O   0  0  0  0  0  0  0  0  0  0  0  0
  -10.2090    5.9766    3.8539 C   0  0  0  0  0  0  0  0  0  0  0  0
  -11.3284    6.9361    4.0702 C   0  0  0  0  0  0  0  0  0  0  0  0
   -9.5902    5.9771    2.7547 O   0  0  0  0  0  0  0  0  0  0  0  0
  1  3  4  0
  1 14  4  0
  1  2  1  0
  3  4  4  0
  4  5  4  0
  5  6  4  0
  5 22  1  0
  6  7  1  0
  6 14  4  0
  7  8  1  0
  8  9  4  0
  8 12  4  0
  9 10  4  0
 10 11  4  0
 11 12  4  0
 12 13  1  0
 13 14  1  0
 13 15  1  6
 15 16  4  0
 15 20  4  0
 16 17  4  0
 17 18  4  0
 17 21  1  0
 18 19  4  0
 19 20  4  0
 23 24  4  0
 24 25  1  0
 25 26  4  0
 26 27  4  0
 27 28  4  0
 28 29  1  0
 29 30  1  0
 30 31  1  0
 30 32  2  0
 28 33  4  0
 33 34  4  0
 34 35  4  0
 35 36  4  0
 36 37  4  0
 24 38  4  0
 38 39  4  0
 39 40  4  0
 40 41  4  0
 41 42  4  0
 42 43  4  0
 43 44  1  0
 44 45  1  0
 45 46  1  0
 45 47  2  0
 37 25  4  0
 42 38  4  0
 37 33  4  0
  2 23  4  0
  2 43  4  0
M  END
$$$$

     RDKit          3D

 34 39  0  0  0  0  0  0  0  0999 V2000
   -7.6410    4.9930    6.8080 C   0  0  0  0  0  0  0  0  0  1  0  0
   -7.7310    4.0530    5.7140 C   0  0  0  0  0  0  0  0  0  2  0  0
   -6.4520    5.6300    6.8680 N   0  0  0  0  0  0  0  0  0  0  0  0
   -6.2260    6.5240    7.8670 N   0  0  0  0  0  0  0  0  0  0  0  0
   -7.1930    6.7500    8.7820 C   0  0  0  0  0  0  0  0  0  0  0  0
   -8.4240    6.1170    8.7580 C   0  0  0  0  0  0  0  0  0  0  0  0
   -9.3950    6.3570    9.7450 N   0  0  0  0  0  0  0  0  0  0  0  0
  -10.5620    5.6840    9.7600 C   0  0  0  0  0  0  0  0  0  0  0  0
  -11.5770    5.6820   10.5960 N   0  0  0  0  0  0  0  0  0  0  0  0
  -12.4690    4.7490   10.1080 N   0  0  0  0  0  0  0  0  0  0  0  0
  -12.0160    4.1880    8.9920 N   0  0  0  0  0  0  0  0  0  0  0  0
  -10.8400    4.7900    8.7610 N   0  0  0  0  0  0  0  0  0  0  0  0
   -9.9950    4.4790    7.6090 C   0  0  0  0  0  0  0  0  0  0  0  0
   -8.6630    5.2070    7.7200 C   0  0  0  0  0  0  0  0  0  0  0  0
  -10.7490    4.8610    6.3730 C   0  0  0  0  0  0  0  0  0  0  0  0
  -11.0350    6.2020    6.1170 C   0  0  0  0  0  0  0  0  0  0  0  0
  -11.7370    6.5580    4.9650 C   0  0  0  0  0  0  0  0  0  0  0  0
  -12.1550    5.5730    4.0710 C   0  0  0  0  0  0  0  0  0  0  0  0
  -11.8700    4.2310    4.3270 C   0  0  0  0  0  0  0  0  0  0  0  0
  -11.1660    3.8760    5.4790 C   0  0  0  0  0  0  0  0  0  0  0  0
  -12.0160    7.8660    4.7150 O   0  0  0  0  0  0  0  0  0  0  0  0
   -6.8990    7.6510    9.7710 O   0  0  0  0  0  0  0  0  0  0  0  0
   -6.9315    2.8880    5.5903 C   0  0  0  0  0  0  0  0  0  0  0  0
   -7.0775    1.9564    4.5404 C   0  0  0  0  0  0  0  0  0  0  0  0
   -8.0715    2.1376    3.5506 C   0  0  0  0  0  0  0  0  0  0  0  0
   -8.2686    1.2430    2.4879 O   0  0  0  0  0  0  0  0  0  0  0  0
   -7.2834    0.4190    1.9285 C   0  0  0  0  0  0  0  0  0  0  0  0
   -7.6891   -0.6782    1.0048 C   0  0  0  0  0  0  0  0  0  0  0  0
   -6.0580    0.6468    2.1179 O   0  0  0  0  0  0  0  0  0  0  0  0
   -8.9056    3.2486    3.6779 C   0  0  0  0  0  0  0  0  0  0  0  0
   -9.9357    3.6870    2.8727 C   0  0  0  0  0  0  0  0  0  0  0  0
  -10.3780    4.8680    3.4554 C   0  0  0  0  0  0  0  0  0  0  0  0
   -9.6629    5.1515    4.5666 N   0  0  0  0  0  0  0  0  0  0  0  0
   -8.7692    4.1539    4.6990 C   0  0  0  0  0  0  0  0  0  0  0  0
  1  3  4  0
  1 14  4  0
  1  2  1  0
  3  4  4  0
  4  5  4  0
  5  6  4  0
  5 22  1  0
  6  7  1  0
  6 14  4  0
  7  8  1  0
  8  9  4  0
  8 12  4  0
  9 10  4  0
 10 11  4  0
 11 12  4  0
 12 13  1  0
 13 14  1  0
 13 15  1  6
 15 16  4  0
 15 20  4  0
 16 17  4  0
 17 18  4  0
 17 21  1  0
 18 19  4  0
 19 20  4  0
 23 24  4  0
 24 25  4  0
 25 26  1  0
 26 27  1  0
 27 28  1  0
 27 29  2  0
 25 30  4  0
 30 31  4  0
 31 32  4  0
 32 33  4  0
 33 34  4  0
 34 30  4  0
  2 23  4  0
  2 34  4  0
M  END
$$$$

     RDKit          3D

 34 39  0  0  0  0  0  0  0  0999 V2000
   -7.6410    4.9930    6.8080 C   0  0  0  0  0  0  0  0  0  1  0  0
   -7.7310    4.0530    5.7140 C   0  0  0  0  0  0  0  0  0  2  0  0
   -6.4520    5.6300    6.8680 N   0  0  0  0  0  0  0  0  0  0  0  0
   -6.2260    6.5240    7.8670 N   0  0  0  0  0  0  0  0  0  0  0  0
   -7.1930    6.7500    8.7820 C   0  0  0  0  0  0  0  0  0  0  0  0
   -8.4240    6.1170    8.7580 C   0  0  0  0  0  0  0  0  0  0  0  0
   -9.3950    6.3570    9.7450 N   0  0  0  0  0  0  0  0  0  0  0  0
  -10.5620    5.6840    9.7600 C   0  0  0  0  0  0  0  0  0  0  0  0
  -11.5770    5.6820   10.5960 N   0  0  0  0  0  0  0  0  0  0  0  0
  -12.4690    4.7490   10.1080 N   0  0  0  0  0  0  0  0  0  0  0  0
  -12.0160    4.1880    8.9920 N   0  0  0  0  0  0  0  0  0  0  0  0
  -10.8400    4.7900    8.7610 N   0  0  0  0  0  0  0  0  0  0  0  0
   -9.9950    4.4790    7.6090 C   0  0  0  0  0  0  0  0  0  0  0  0
   -8.6630    5.2070    7.7200 C   0  0  0  0  0  0  0  0  0  0  0  0
  -10.7490    4.8610    6.3730 C   0  0  0  0  0  0  0  0  0  0  0  0
  -11.0350    6.2020    6.1170 C   0  0  0  0  0  0  0  0  0  0  0  0
  -11.7370    6.5580    4.9650 C   0  0  0  0  0  0  0  0  0  0  0  0
  -12.1550    5.5730    4.0710 C   0  0  0  0  0  0  0  0  0  0  0  0
  -11.8700    4.2310    4.3270 C   0  0  0  0  0  0  0  0  0  0  0  0
  -11.1660    3.8760    5.4790 C   0  0  0  0  0  0  0  0  0  0  0  0
  -12.0160    7.8660    4.7150 O   0  0  0  0  0  0  0  0  0  0  0  0
   -6.8990    7.6510    9.7710 O   0  0  0  0  0  0  0  0  0  0  0  0
   -6.9044    2.9112    5.5635 C   0  0  0  0  0  0  0  0  0  0  0  0
   -7.0710    1.9625    4.5337 C   0  0  0  0  0  0  0  0  0  0  0  0
   -8.1047    2.0992    3.5904 C   0  0  0  0  0  0  0  0  0  0  0  0
   -8.2427    1.1439    2.5758 O   0  0  0  0  0  0  0  0  0  0  0  0
   -8.4254    1.4572    1.2243 C   0  0  0  0  0  0  0  0  0  0  0  0
   -8.8426    0.3859    0.2754 C   0  0  0  0  0  0  0  0  0  0  0  0
   -8.2426    2.6313    0.8012 O   0  0  0  0  0  0  0  0  0  0  0  0
   -8.9760    3.1887    3.7352 C   0  0  0  0  0  0  0  0  0  0  0  0
  -10.1011    3.5551    3.0216 C   0  0  0  0  0  0  0  0  0  0  0  0
  -10.5593    4.7186    3.6247 C   0  0  0  0  0  0  0  0  0  0  0  0
   -9.7731    5.0579    4.6692 N   0  0  0  0  0  0  0  0  0  0  0  0
   -8.8196    4.1107    4.7419 C   0  0  0  0  0  0  0  0  0  0  0  0
  1  3  4  0
  1 14  4  0
  1  2  1  0
  3  4  4  0
  4  5  4  0
  5  6  4  0
  5 22  1  0
  6  7  1  0
  6 14  4  0
  7  8  1  0
  8  9  4  0
  8 12  4  0
  9 10  4  0
 10 11  4  0
 11 12  4  0
 12 13  1  0
 13 14  1  0
 13 15  1  6
 15 16  4  0
 15 20  4  0
 16 17  4  0
 17 18  4  0
 17 21  1  0
 18 19  4  0
 19 20  4  0
 23 24  4  0
 24 25  4  0
 25 26  1  0
 26 27  1  0
 27 28  1  0
 27 29  2  0
 25 30  4  0
 30 31  4  0
 31 32  4  0
 32 33  4  0
 33 34  4  0
 34 30  4  0
  2 23  4  0
  2 34  4  0
M  END
$$$$

     RDKit          3D

 29 33  0  0  0  0  0  0  0  0999 V2000
   -7.6410    4.9930    6.8080 C   0  0  0  0  0  0  0  0  0  1  0  0
   -7.7310    4.0530    5.7140 C   0  0  0  0  0  0  0  0  0  2  0  0
   -6.4520    5.6300    6.8680 N   0  0  0  0  0  0  0  0  0  0  0  0
   -6.2260    6.5240    7.8670 N   0  0  0  0  0  0  0  0  0  0  0  0
   -7.1930    6.7500    8.7820 C   0  0  0  0  0  0  0  0  0  0  0  0
   -8.4240    6.1170    8.7580 C   0  0  0  0  0  0  0  0  0  0  0  0
   -9.3950    6.3570    9.7450 N   0  0  0  0  0  0  0  0  0  0  0  0
  -10.5620    5.6840    9.7600 C   0  0  0  0  0  0  0  0  0  0  0  0
  -11.5770    5.6820   10.5960 N   0  0  0  0  0  0  0  0  0  0  0  0
  -12.4690    4.7490   10.1080 N   0  0  0  0  0  0  0  0  0  0  0  0
  -12.0160    4.1880    8.9920 N   0  0  0  0  0  0  0  0  0  0  0  0
  -10.8400    4.7900    8.7610 N   0  0  0  0  0  0  0  0  0  0  0  0
   -9.9950    4.4790    7.6090 C   0  0  0  0  0  0  0  0  0  0  0  0
   -8.6630    5.2070    7.7200 C   0  0  0  0  0  0  0  0  0  0  0  0
  -10.7490    4.8610    6.3730 C   0  0  0  0  0  0  0  0  0  0  0  0
  -11.0350    6.2020    6.1170 C   0  0  0  0  0  0  0  0  0  0  0  0
  -11.7370    6.5580    4.9650 C   0  0  0  0  0  0  0  0  0  0  0  0
  -12.1550    5.5730    4.0710 C   0  0  0  0  0  0  0  0  0  0  0  0
  -11.8700    4.2310    4.3270 C   0  0  0  0  0  0  0  0  0  0  0  0
  -11.1660    3.8760    5.4790 C   0  0  0  0  0  0  0  0  0  0  0  0
  -12.0160    7.8660    4.7150 O   0  0  0  0  0  0  0  0  0  0  0  0
   -6.8990    7.6510    9.7710 O   0  0  0  0  0  0  0  0  0  0  0  0
   -6.7729    3.0506    5.4925 C   0  0  0  0  0  0  0  0  0  0  0  0
   -6.9149    2.0738    4.5026 C   0  0  0  0  0  0  0  0  0  0  0  0
   -5.5510    0.7600    4.2542 Br  0  0  0  0  0  0  0  0  0  0  0  0
   -8.0585    2.0527    3.7021 C   0  0  0  0  0  0  0  0  0  0  0  0
   -9.0529    3.0170    3.8774 C   0  0  0  0  0  0  0  0  0  0  0  0
   -8.9156    4.0111    4.8538 C   0  0  0  0  0  0  0  0  0  0  0  0
   -9.9061    4.9917    4.9394 O   0  0  0  0  0  0  0  0  0  0  0  0
  1  3  4  0
  1 14  4  0
  1  2  1  0
  3  4  4  0
  4  5  4  0
  5  6  4  0
  5 22  1  0
  6  7  1  0
  6 14  4  0
  7  8  1  0
  8  9  4  0
  8 12  4  0
  9 10  4  0
 10 11  4  0
 11 12  4  0
 12 13  1  0
 13 14  1  0
 13 15  1  6
 15 16  4  0
 15 20  4  0
 16 17  4  0
 17 18  4  0
 17 21  1  0
 18 19  4  0
 19 20  4  0
 23 24  4  0
 24 25  1  0
 24 26  4  0
 26 27  4  0
 27 28  4  0
 28 29  1  0
  2 23  4  0
  2 28  4  0
M  END
$$$$

     RDKit          3D

 40 45  0  0  0  0  0  0  0  0999 V2000
   -7.6410    4.9930    6.8080 C   0  0  0  0  0  0  0  0  0  1  0  0
   -7.7310    4.0530    5.7140 C   0  0  0  0  0  0  0  0  0  2  0  0
   -6.4520    5.6300    6.8680 N   0  0  0  0  0  0  0  0  0  0  0  0
   -6.2260    6.5240    7.8670 N   0  0  0  0  0  0  0  0  0  0  0  0
   -7.1930    6.7500    8.7820 C   0  0  0  0  0  0  0  0  0  0  0  0
   -8.4240    6.1170    8.7580 C   0  0  0  0  0  0  0  0  0  0  0  0
   -9.3950    6.3570    9.7450 N   0  0  0  0  0  0  0  0  0  0  0  0
  -10.5620    5.6840    9.7600 C   0  0  0  0  0  0  0  0  0  0  0  0
  -11.5770    5.6820   10.5960 N   0  0  0  0  0  0  0  0  0  0  0  0
  -12.4690    4.7490   10.1080 N   0  0  0  0  0  0  0  0  0  0  0  0
  -12.0160    4.1880    8.9920 N   0  0  0  0  0  0  0  0  0  0  0  0
  -10.8400    4.7900    8.7610 N   0  0  0  0  0  0  0  0  0  0  0  0
   -9.9950    4.4790    7.6090 C   0  0  0  0  0  0  0  0  0  0  0  0
   -8.6630    5.2070    7.7200 C   0  0  0  0  0  0  0  0  0  0  0  0
  -10.7490    4.8610    6.3730 C   0  0  0  0  0  0  0  0  0  0  0  0
  -11.0350    6.2020    6.1170 C   0  0  0  0  0  0  0  0  0  0  0  0
  -11.7370    6.5580    4.9650 C   0  0  0  0  0  0  0  0  0  0  0  0
  -12.1550    5.5730    4.0710 C   0  0  0  0  0  0  0  0  0  0  0  0
  -11.8700    4.2310    4.3270 C   0  0  0  0  0  0  0  0  0  0  0  0
  -11.1660    3.8760    5.4790 C   0  0  0  0  0  0  0  0  0  0  0  0
  -12.0160    7.8660    4.7150 O   0  0  0  0  0  0  0  0  0  0  0  0
   -6.8990    7.6510    9.7710 O   0  0  0  0  0  0  0  0  0  0  0  0
   -6.9168    2.9781    5.5409 N   0  0  0  0  0  0  0  0  0  0  0  0
   -7.0469    2.0653    4.5415 C   0  0  0  0  0  0  0  0  0  0  0  0
   -6.1095    0.9837    4.4458 N   0  0  0  0  0  0  0  0  0  0  0  0
   -5.9974    0.1137    3.3073 C   0  0  0  0  0  0  0  0  0  0  0  0
   -6.1413    0.6014    1.9975 C   0  0  0  0  0  0  0  0  0  0  0  0
   -6.0005   -0.2575    0.9038 C   0  0  0  0  0  0  0  0  0  0  0  0
   -5.7122   -1.6193    1.0986 C   0  0  0  0  0  0  0  0  0  0  0  0
   -5.5463   -2.5331   -0.0568 C   0  0  0  0  0  0  0  0  0  0  0  0
   -4.7556   -3.5109    0.0440 O   0  0  0  0  0  0  0  0  0  0  0  0
   -6.2530   -2.3261   -1.2951 N   0  0  0  0  0  0  0  0  0  0  0  0
   -5.5864   -2.6382   -2.5593 C   0  0  0  0  0  0  0  0  0  0  0  0
   -7.6436   -1.8657   -1.3135 C   0  0  0  0  0  0  0  0  0  0  0  0
   -5.5315   -2.0954    2.4077 C   0  0  0  0  0  0  0  0  0  0  0  0
   -5.6709   -1.2356    3.5009 C   0  0  0  0  0  0  0  0  0  0  0  0
   -8.0902    2.1635    3.6729 N   0  0  0  0  0  0  0  0  0  0  0  0
   -8.9915    3.1740    3.7712 C   0  0  0  0  0  0  0  0  0  0  0  0
   -8.8631    4.1254    4.7817 C   0  0  0  0  0  0  0  0  0  0  0  0
   -9.7329    5.1638    4.8519 F   0  0  0  0  0  0  0  0  0  0  0  0
  1  3  4  0
  1 14  4  0
  1  2  1  0
  3  4  4  0
  4  5  4  0
  5  6  4  0
  5 22  1  0
  6  7  1  0
  6 14  4  0
  7  8  1  0
  8  9  4  0
  8 12  4  0
  9 10  4  0
 10 11  4  0
 11 12  4  0
 12 13  1  0
 13 14  1  0
 13 15  1  6
 15 16  4  0
 15 20  4  0
 16 17  4  0
 17 18  4  0
 17 21  1  0
 18 19  4  0
 19 20  4  0
 23 24  4  0
 24 25  1  0
 25 26  1  0
 26 27  4  0
 27 28  4  0
 28 29  4  0
 29 30  1  0
 30 31  2  0
 30 32  1  0
 32 33  1  0
 32 34  1  0
 29 35  4  0
 35 36  4  0
 24 37  4  0
 37 38  4  0
 38 39  4  0
 39 40  1  0
 36 26  4  0
  2 23  4  0
  2 39  4  0
M  END
$$$$

     RDKit          3D

 33 39  0  0  0  0  0  0  0  0999 V2000
   -7.6410    4.9930    6.8080 C   0  0  0  0  0  0  0  0  0  1  0  0
   -7.7310    4.0530    5.7140 C   0  0  0  0  0  0  0  0  0  2  0  0
   -6.4520    5.6300    6.8680 N   0  0  0  0  0  0  0  0  0  0  0  0
   -6.2260    6.5240    7.8670 N   0  0  0  0  0  0  0  0  0  0  0  0
   -7.1930    6.7500    8.7820 C   0  0  0  0  0  0  0  0  0  0  0  0
   -8.4240    6.1170    8.7580 C   0  0  0  0  0  0  0  0  0  0  0  0
   -9.3950    6.3570    9.7450 N   0  0  0  0  0  0  0  0  0  0  0  0
  -10.5620    5.6840    9.7600 C   0  0  0  0  0  0  0  0  0  0  0  0
  -11.5770    5.6820   10.5960 N   0  0  0  0  0  0  0  0  0  0  0  0
  -12.4690    4.7490   10.1080 N   0  0  0  0  0  0  0  0  0  0  0  0
  -12.0160    4.1880    8.9920 N   0  0  0  0  0  0  0  0  0  0  0  0
  -10.8400    4.7900    8.7610 N   0  0  0  0  0  0  0  0  0  0  0  0
   -9.9950    4.4790    7.6090 C   0  0  0  0  0  0  0  0  0  0  0  0
   -8.6630    5.2070    7.7200 C   0  0  0  0  0  0  0  0  0  0  0  0
  -10.7490    4.8610    6.3730 C   0  0  0  0  0  0  0  0  0  0  0  0
  -11.0350    6.2020    6.1170 C   0  0  0  0  0  0  0  0  0  0  0  0
  -11.7370    6.5580    4.9650 C   0  0  0  0  0  0  0  0  0  0  0  0
  -12.1550    5.5730    4.0710 C   0  0  0  0  0  0  0  0  0  0  0  0
  -11.8700    4.2310    4.3270 C   0  0  0  0  0  0  0  0  0  0  0  0
  -11.1660    3.8760    5.4790 C   0  0  0  0  0  0  0  0  0  0  0  0
  -12.0160    7.8660    4.7150 O   0  0  0  0  0  0  0  0  0  0  0  0
   -6.8990    7.6510    9.7710 O   0  0  0  0  0  0  0  0  0  0  0  0
   -7.0420    2.8817    5.5502 N   0  0  0  0  0  0  0  0  0  0  0  0
   -7.5373    2.1775    4.5322 N   0  0  0  0  0  0  0  0  0  0  0  0
   -8.5898    2.8768    4.0699 C   0  0  0  0  0  0  0  0  0  0  0  0
   -9.4301    2.5542    2.9908 C   0  0  0  0  0  0  0  0  0  0  0  0
  -10.4557    3.4704    2.6550 C   0  0  0  0  0  0  0  0  0  0  0  0
  -10.5589    4.6460    3.4174 C   0  0  0  0  0  0  0  0  0  0  0  0
  -11.3953    5.6816    3.2270 N   0  0  0  0  0  0  0  0  0  0  0  0
  -11.0664    6.5932    4.1430 N   0  0  0  0  0  0  0  0  0  0  0  0
  -10.0375    6.1024    4.8748 C   0  0  0  0  0  0  0  0  0  0  0  0
   -9.7226    4.8762    4.4341 N   0  0  0  0  0  0  0  0  0  0  0  0
   -8.7699    4.0069    4.7625 N   0  0  0  0  0  0  0  0  0  0  0  0
  1  3  4  0
  1 14  4  0
  1  2  1  0
  3  4  4  0
  4  5  4  0
  5  6  4  0
  5 22  1  0
  6  7  1  0
  6 14  4  0
  7  8  1  0
  8  9  4  0
  8 12  4  0
  9 10  4  0
 10 11  4  0
 11 12  4  0
 12 13  1  0
 13 14  1  0
 13 15  1  6
 15 16  4  0
 15 20  4  0
 16 17  4  0
 17 18  4  0
 17 21  1  0
 18 19  4  0
 19 20  4  0
 23 24  4  0
 24 25  4  0
 25 26  4  0
 26 27  4  0
 27 28  4  0
 28 29  4  0
 29 30  4  0
 30 31  4  0
 31 32  4  0
 32 33  4  0
 33 25  4  0
 32 28  4  0
  2 23  4  0
  2 33  4  0
M  END
$$$$

     RDKit          3D

 28 32  0  0  0  0  0  0  0  0999 V2000
   -7.6410    4.9930    6.8080 C   0  0  0  0  0  0  0  0  0  1  0  0
   -7.7310    4.0530    5.7140 C   0  0  0  0  0  0  0  0  0  2  0  0
   -6.4520    5.6300    6.8680 N   0  0  0  0  0  0  0  0  0  0  0  0
   -6.2260    6.5240    7.8670 N   0  0  0  0  0  0  0  0  0  0  0  0
   -7.1930    6.7500    8.7820 C   0  0  0  0  0  0  0  0  0  0  0  0
   -8.4240    6.1170    8.7580 C   0  0  0  0  0  0  0  0  0  0  0  0
   -9.3950    6.3570    9.7450 N   0  0  0  0  0  0  0  0  0  0  0  0
  -10.5620    5.6840    9.7600 C   0  0  0  0  0  0  0  0  0  0  0  0
  -11.5770    5.6820   10.5960 N   0  0  0  0  0  0  0  0  0  0  0  0
  -12.4690    4.7490   10.1080 N   0  0  0  0  0  0  0  0  0  0  0  0
  -12.0160    4.1880    8.9920 N   0  0  0  0  0  0  0  0  0  0  0  0
  -10.8400    4.7900    8.7610 N   0  0  0  0  0  0  0  0  0  0  0  0
   -9.9950    4.4790    7.6090 C   0  0  0  0  0  0  0  0  0  0  0  0
   -8.6630    5.2070    7.7200 C   0  0  0  0  0  0  0  0  0  0  0  0
  -10.7490    4.8610    6.3730 C   0  0  0  0  0  0  0  0  0  0  0  0
  -11.0350    6.2020    6.1170 C   0  0  0  0  0  0  0  0  0  0  0  0
  -11.7370    6.5580    4.9650 C   0  0  0  0  0  0  0  0  0  0  0  0
  -12.1550    5.5730    4.0710 C   0  0  0  0  0  0  0  0  0  0  0  0
  -11.8700    4.2310    4.3270 C   0  0  0  0  0  0  0  0  0  0  0  0
  -11.1660    3.8760    5.4790 C   0  0  0  0  0  0  0  0  0  0  0  0
  -12.0160    7.8660    4.7150 O   0  0  0  0  0  0  0  0  0  0  0  0
   -6.8990    7.6510    9.7710 O   0  0  0  0  0  0  0  0  0  0  0  0
   -6.9987    2.9010    5.4784 C   0  0  0  0  0  0  0  0  0  0  0  0
   -7.5691    2.2894    4.3781 C   0  0  0  0  0  0  0  0  0  0  0  0
   -7.1349    0.9943    3.7788 C   0  0  0  0  0  0  0  0  0  0  0  0
   -8.6428    2.9891    3.9612 N   0  0  0  0  0  0  0  0  0  0  0  0
   -8.7631    4.0410    4.7556 N   0  0  0  0  0  0  0  0  0  0  0  0
   -9.7934    5.0572    4.5718 C   0  0  0  0  0  0  0  0  0  0  0  0
  1  3  4  0
  1 14  4  0
  1  2  1  0
  3  4  4  0
  4  5  4  0
  5  6  4  0
  5 22  1  0
  6  7  1  0
  6 14  4  0
  7  8  1  0
  8  9  4  0
  8 12  4  0
  9 10  4  0
 10 11  4  0
 11 12  4  0
 12 13  1  0
 13 14  1  0
 13 15  1  6
 15 16  4  0
 15 20  4  0
 16 17  4  0
 17 18  4  0
 17 21  1  0
 18 19  4  0
 19 20  4  0
 23 24  4  0
 24 25  1  0
 24 26  4  0
 26 27  4  0
 27 28  1  0
  2 23  4  0
  2 27  4  0
M  END
$$$$

     RDKit          3D

 46 52  0  0  0  0  0  0  0  0999 V2000
   -7.6410    4.9930    6.8080 C   0  0  0  0  0  0  0  0  0  1  0  0
   -7.7310    4.0530    5.7140 C   0  0  0  0  0  0  0  0  0  2  0  0
   -6.4520    5.6300    6.8680 N   0  0  0  0  0  0  0  0  0  0  0  0
   -6.2260    6.5240    7.8670 N   0  0  0  0  0  0  0  0  0  0  0  0
   -7.1930    6.7500    8.7820 C   0  0  0  0  0  0  0  0  0  0  0  0
   -8.4240    6.1170    8.7580 C   0  0  0  0  0  0  0  0  0  0  0  0
   -9.3950    6.3570    9.7450 N   0  0  0  0  0  0  0  0  0  0  0  0
  -10.5620    5.6840    9.7600 C   0  0  0  0  0  0  0  0  0  0  0  0
  -11.5770    5.6820   10.5960 N   0  0  0  0  0  0  0  0  0  0  0  0
  -12.4690    4.7490   10.1080 N   0  0  0  0  0  0  0  0  0  0  0  0
  -12.0160    4.1880    8.9920 N   0  0  0  0  0  0  0  0  0  0  0  0
  -10.8400    4.7900    8.7610 N   0  0  0  0  0  0  0  0  0  0  0  0
   -9.9950    4.4790    7.6090 C   0  0  0  0  0  0  0  0  0  0  0  0
   -8.6630    5.2070    7.7200 C   0  0  0  0  0  0  0  0  0  0  0  0
  -10.7490    4.8610    6.3730 C   0  0  0  0  0  0  0  0  0  0  0  0
  -11.0350    6.2020    6.1170 C   0  0  0  0  0  0  0  0  0  0  0  0
  -11.7370    6.5580    4.9650 C   0  0  0  0  0  0  0  0  0  0  0  0
  -12.1550    5.5730    4.0710 C   0  0  0  0  0  0  0  0  0  0  0  0
  -11.8700    4.2310    4.3270 C   0  0  0  0  0  0  0  0  0  0  0  0
  -11.1660    3.8760    5.4790 C   0  0  0  0  0  0  0  0  0  0  0  0
  -12.0160    7.8660    4.7150 O   0  0  0  0  0  0  0  0  0  0  0  0
   -6.8990    7.6510    9.7710 O   0  0  0  0  0  0  0  0  0  0  0  0
   -6.8661    3.0535    5.4235 N   0  0  0  0  0  0  0  0  0  0  0  0
   -7.3095    2.3962    4.3650 N   0  0  0  0  0  0  0  0  0  0  0  0
   -8.4707    2.9545    3.9870 C   0  0  0  0  0  0  0  0  0  0  0  0
   -9.3229    2.4624    2.6773 S   0  0  0  0  0  0  0  0  0  0  0  0
   -8.8105    3.9773    4.8019 N   0  0  0  0  0  0  0  0  0  0  0  0
   -9.8953    4.9546    4.6275 C   0  0  0  0  0  0  0  0  0  0  0  0
   -9.3649    6.2662    4.0369 C   0  0  0  0  0  0  0  0  0  0  0  0
   -8.9741    6.0999    2.5988 C   0  0  0  0  0  0  0  0  0  0  0  0
   -7.7534    6.0151    2.2950 O   0  0  0  0  0  0  0  0  0  0  0  0
   -9.9876    6.0565    1.5820 N   0  0  0  0  0  0  0  0  0  0  0  0
   -9.6942    5.8092    0.1631 C   0  0  0  0  0  0  0  0  0  0  0  0
  -10.3440    6.8618   -0.7158 C   0  0  0  0  0  0  0  0  0  0  0  0
  -11.7282    7.1180   -0.6544 C   0  0  0  0  0  0  0  0  0  0  0  0
  -12.3087    8.0809   -1.4854 C   0  0  0  0  0  0  0  0  0  0  0  0
  -11.5197    8.7955   -2.3885 C   0  0  0  0  0  0  0  0  0  0  0  0
  -10.1474    8.5495   -2.4623 C   0  0  0  0  0  0  0  0  0  0  0  0
   -9.5614    7.5877   -1.6341 C   0  0  0  0  0  0  0  0  0  0  0  0
  -10.1249    4.4162   -0.2577 C   0  0  0  0  0  0  0  0  0  0  0  0
  -11.3421    3.8530    0.1731 C   0  0  0  0  0  0  0  0  0  0  0  0
  -11.7196    2.5740   -0.2442 C   0  0  0  0  0  0  0  0  0  0  0  0
  -10.8893    1.8323   -1.0952 C   0  0  0  0  0  0  0  0  0  0  0  0
  -11.3187    0.4771   -1.5742 C   0  0  0  0  0  0  0  0  0  0  0  0
   -9.6926    2.3995   -1.5538 C   0  0  0  0  0  0  0  0  0  0  0  0
   -9.3129    3.6781   -1.1373 C   0  0  0  0  0  0  0  0  0  0  0  0
  1  3  4  0
  1 14  4  0
  1  2  1  0
  3  4  4  0
  4  5  4  0
  5  6  4  0
  5 22  1  0
  6  7  1  0
  6 14  4  0
  7  8  1  0
  8  9  4  0
  8 12  4  0
  9 10  4  0
 10 11  4  0
 11 12  4  0
 12 13  1  0
 13 14  1  0
 13 15  1  6
 15 16  4  0
 15 20  4  0
 16 17  4  0
 17 18  4  0
 17 21  1  0
 18 19  4  0
 19 20  4  0
 23 24  4  0
 24 25  4  0
 25 26  2  0
 25 27  4  0
 27 28  1  0
 28 29  1  0
 29 30  1  0
 30 31  2  0
 30 32  1  0
 32 33  1  0
 33 34  1  0
 34 35  4  0
 35 36  4  0
 36 37  4  0
 37 38  4  0
 38 39  4  0
 33 40  1  0
 40 41  4  0
 41 42  4  0
 42 43  4  0
 43 44  1  0
 43 45  4  0
 45 46  4  0
 39 34  4  0
 46 40  4  0
  2 23  4  0
  2 27  4  0
M  END
$$$$

     RDKit          3D

 46 52  0  0  0  0  0  0  0  0999 V2000
   -7.6410    4.9930    6.8080 C   0  0  0  0  0  0  0  0  0  1  0  0
   -7.7310    4.0530    5.7140 C   0  0  0  0  0  0  0  0  0  2  0  0
   -6.4520    5.6300    6.8680 N   0  0  0  0  0  0  0  0  0  0  0  0
   -6.2260    6.5240    7.8670 N   0  0  0  0  0  0  0  0  0  0  0  0
   -7.1930    6.7500    8.7820 C   0  0  0  0  0  0  0  0  0  0  0  0
   -8.4240    6.1170    8.7580 C   0  0  0  0  0  0  0  0  0  0  0  0
   -9.3950    6.3570    9.7450 N   0  0  0  0  0  0  0  0  0  0  0  0
  -10.5620    5.6840    9.7600 C   0  0  0  0  0  0  0  0  0  0  0  0
  -11.5770    5.6820   10.5960 N   0  0  0  0  0  0  0  0  0  0  0  0
  -12.4690    4.7490   10.1080 N   0  0  0  0  0  0  0  0  0  0  0  0
  -12.0160    4.1880    8.9920 N   0  0  0  0  0  0  0  0  0  0  0  0
  -10.8400    4.7900    8.7610 N   0  0  0  0  0  0  0  0  0  0  0  0
   -9.9950    4.4790    7.6090 C   0  0  0  0  0  0  0  0  0  0  0  0
   -8.6630    5.2070    7.7200 C   0  0  0  0  0  0  0  0  0  0  0  0
  -10.7490    4.8610    6.3730 C   0  0  0  0  0  0  0  0  0  0  0  0
  -11.0350    6.2020    6.1170 C   0  0  0  0  0  0  0  0  0  0  0  0
  -11.7370    6.5580    4.9650 C   0  0  0  0  0  0  0  0  0  0  0  0
  -12.1550    5.5730    4.0710 C   0  0  0  0  0  0  0  0  0  0  0  0
  -11.8700    4.2310    4.3270 C   0  0  0  0  0  0  0  0  0  0  0  0
  -11.1660    3.8760    5.4790 C   0  0  0  0  0  0  0  0  0  0  0  0
  -12.0160    7.8660    4.7150 O   0  0  0  0  0  0  0  0  0  0  0  0
   -6.8990    7.6510    9.7710 O   0  0  0  0  0  0  0  0  0  0  0  0
   -6.8775    3.0421    5.4293 N   0  0  0  0  0  0  0  0  0  0  0  0
   -7.3080    2.4115    4.3493 N   0  0  0  0  0  0  0  0  0  0  0  0
   -8.4490    2.9986    3.9546 C   0  0  0  0  0  0  0  0  0  0  0  0
   -9.2611    2.5768    2.5943 S   0  0  0  0  0  0  0  0  0  0  0  0
   -8.7923    4.0077    4.7841 N   0  0  0  0  0  0  0  0  0  0  0  0
   -9.8345    5.0231    4.5840 C   0  0  0  0  0  0  0  0  0  0  0  0
   -9.2634    6.2300    3.8269 C   0  0  0  0  0  0  0  0  0  0  0  0
  -10.2578    7.3457    3.6616 C   0  0  0  0  0  0  0  0  0  0  0  0
  -11.4159    7.2537    4.1529 O   0  0  0  0  0  0  0  0  0  0  0  0
   -9.8791    8.5239    2.9386 N   0  0  0  0  0  0  0  0  0  0  0  0
  -10.7754    9.6806    2.8047 C   0  0  0  0  0  0  0  0  0  0  0  0
  -10.0256   10.8661    2.2251 C   0  0  0  0  0  0  0  0  0  0  0  0
   -9.7218   10.9364    0.8505 C   0  0  0  0  0  0  0  0  0  0  0  0
   -9.0240   12.0314    0.3330 C   0  0  0  0  0  0  0  0  0  0  0  0
   -8.5981   13.0527    1.1817 C   0  0  0  0  0  0  0  0  0  0  0  0
   -8.8681   12.9831    2.5537 C   0  0  0  0  0  0  0  0  0  0  0  0
   -9.5734   11.8940    3.0747 C   0  0  0  0  0  0  0  0  0  0  0  0
  -12.0079    9.3520    1.9763 C   0  0  0  0  0  0  0  0  0  0  0  0
  -13.1828   10.1002    2.1651 C   0  0  0  0  0  0  0  0  0  0  0  0
  -14.3208    9.8428    1.3950 C   0  0  0  0  0  0  0  0  0  0  0  0
  -14.2945    8.8508    0.4039 C   0  0  0  0  0  0  0  0  0  0  0  0
  -15.5242    8.5501   -0.3999 C   0  0  0  0  0  0  0  0  0  0  0  0
  -13.1269    8.0987    0.2125 C   0  0  0  0  0  0  0  0  0  0  0  0
  -11.9896    8.3518    0.9840 C   0  0  0  0  0  0  0  0  0  0  0  0
  1  3  4  0
  1 14  4  0
  1  2  1  0
  3  4  4  0
  4  5  4  0
  5  6  4  0
  5 22  1  0
  6  7  1  0
  6 14  4  0
  7  8  1  0
  8  9  4  0
  8 12  4  0
  9 10  4  0
 10 11  4  0
 11 12  4  0
 12 13  1  0
 13 14  1  0
 13 15  1  6
 15 16  4  0
 15 20  4  0
 16 17  4  0
 17 18  4  0
 17 21  1  0
 18 19  4  0
 19 20  4  0
 23 24  4  0
 24 25  4  0
 25 26  2  0
 25 27  4  0
 27 28  1  0
 28 29  1  0
 29 30  1  0
 30 31  2  0
 30 32  1  0
 32 33  1  0
 33 34  1  0
 34 35  4  0
 35 36  4  0
 36 37  4  0
 37 38  4  0
 38 39  4  0
 33 40  1  0
 40 41  4  0
 41 42  4  0
 42 43  4  0
 43 44  1  0
 43 45  4  0
 45 46  4  0
 39 34  4  0
 46 40  4  0
  2 23  4  0
  2 27  4  0
M  END
$$$$

     RDKit          3D

 46 52  0  0  0  0  0  0  0  0999 V2000
   -7.6410    4.9930    6.8080 C   0  0  0  0  0  0  0  0  0  1  0  0
   -7.7310    4.0530    5.7140 C   0  0  0  0  0  0  0  0  0  2  0  0
   -6.4520    5.6300    6.8680 N   0  0  0  0  0  0  0  0  0  0  0  0
   -6.2260    6.5240    7.8670 N   0  0  0  0  0  0  0  0  0  0  0  0
   -7.1930    6.7500    8.7820 C   0  0  0  0  0  0  0  0  0  0  0  0
   -8.4240    6.1170    8.7580 C   0  0  0  0  0  0  0  0  0  0  0  0
   -9.3950    6.3570    9.7450 N   0  0  0  0  0  0  0  0  0  0  0  0
  -10.5620    5.6840    9.7600 C   0  0  0  0  0  0  0  0  0  0  0  0
  -11.5770    5.6820   10.5960 N   0  0  0  0  0  0  0  0  0  0  0  0
  -12.4690    4.7490   10.1080 N   0  0  0  0  0  0  0  0  0  0  0  0
  -12.0160    4.1880    8.9920 N   0  0  0  0  0  0  0  0  0  0  0  0
  -10.8400    4.7900    8.7610 N   0  0  0  0  0  0  0  0  0  0  0  0
   -9.9950    4.4790    7.6090 C   0  0  0  0  0  0  0  0  0  0  0  0
   -8.6630    5.2070    7.7200 C   0  0  0  0  0  0  0  0  0  0  0  0
  -10.7490    4.8610    6.3730 C   0  0  0  0  0  0  0  0  0  0  0  0
  -11.0350    6.2020    6.1170 C   0  0  0  0  0  0  0  0  0  0  0  0
  -11.7370    6.5580    4.9650 C   0  0  0  0  0  0  0  0  0  0  0  0
  -12.1550    5.5730    4.0710 C   0  0  0  0  0  0  0  0  0  0  0  0
  -11.8700    4.2310    4.3270 C   0  0  0  0  0  0  0  0  0  0  0  0
  -11.1660    3.8760    5.4790 C   0  0  0  0  0  0  0  0  0  0  0  0
  -12.0160    7.8660    4.7150 O   0  0  0  0  0  0  0  0  0  0  0  0
   -6.8990    7.6510    9.7710 O   0  0  0  0  0  0  0  0  0  0  0  0
   -6.8584    3.0661    5.4048 N   0  0  0  0  0  0  0  0  0  0  0  0
   -7.2888    2.4371    4.3232 N   0  0  0  0  0  0  0  0  0  0  0  0
   -8.4505    2.9972    3.9528 C   0  0  0  0  0  0  0  0  0  0  0  0
   -9.2383    2.6123    2.5672 S   0  0  0  0  0  0  0  0  0  0  0  0
   -8.8035    3.9934    4.7955 N   0  0  0  0  0  0  0  0  0  0  0  0
   -9.8289    5.0214    4.5783 C   0  0  0  0  0  0  0  0  0  0  0  0
   -9.2214    6.2166    3.8386 C   0  0  0  0  0  0  0  0  0  0  0  0
  -10.2870    7.2018    3.4670 C   0  0  0  0  0  0  0  0  0  0  0  0
  -10.7407    7.9854    4.3474 O   0  0  0  0  0  0  0  0  0  0  0  0
  -10.7654    7.2627    2.1136 N   0  0  0  0  0  0  0  0  0  0  0  0
  -11.8508    8.1491    1.6764 C   0  0  0  0  0  0  0  0  0  0  0  0
  -11.3399    9.0393    0.5641 C   0  0  0  0  0  0  0  0  0  0  0  0
  -11.1739   10.4194    0.7812 C   0  0  0  0  0  0  0  0  0  0  0  0
  -10.6858   11.2418   -0.2395 C   0  0  0  0  0  0  0  0  0  0  0  0
  -10.3528   10.6946   -1.4818 C   0  0  0  0  0  0  0  0  0  0  0  0
  -10.5073    9.3239   -1.7061 C   0  0  0  0  0  0  0  0  0  0  0  0
  -10.9951    8.4971   -0.6896 C   0  0  0  0  0  0  0  0  0  0  0  0
  -13.0837    7.3736    1.2329 C   0  0  0  0  0  0  0  0  0  0  0  0
  -14.2503    8.0880    0.9064 C   0  0  0  0  0  0  0  0  0  0  0  0
  -15.4040    7.4204    0.4869 C   0  0  0  0  0  0  0  0  0  0  0  0
  -15.4120    6.0226    0.3758 C   0  0  0  0  0  0  0  0  0  0  0  0
  -16.6609    5.3013   -0.0386 C   0  0  0  0  0  0  0  0  0  0  0  0
  -14.2630    5.2990    0.7237 C   0  0  0  0  0  0  0  0  0  0  0  0
  -13.1070    5.9650    1.1434 C   0  0  0  0  0  0  0  0  0  0  0  0
  1  3  4  0
  1 14  4  0
  1  2  1  0
  3  4  4  0
  4  5  4  0
  5  6  4  0
  5 22  1  0
  6  7  1  0
  6 14  4  0
  7  8  1  0
  8  9  4  0
  8 12  4  0
  9 10  4  0
 10 11  4  0
 11 12  4  0
 12 13  1  0
 13 14  1  0
 13 15  1  6
 15 16  4  0
 15 20  4  0
 16 17  4  0
 17 18  4  0
 17 21  1  0
 18 19  4  0
 19 20  4  0
 23 24  4  0
 24 25  4  0
 25 26  2  0
 25 27  4  0
 27 28  1  0
 28 29  1  0
 29 30  1  0
 30 31  2  0
 30 32  1  0
 32 33  1  0
 33 34  1  0
 34 35  4  0
 35 36  4  0
 36 37  4  0
 37 38  4  0
 38 39  4  0
 33 40  1  0
 40 41  4  0
 41 42  4  0
 42 43  4  0
 43 44  1  0
 43 45  4  0
 45 46  4  0
 39 34  4  0
 46 40  4  0
  2 23  4  0
  2 27  4  0
M  END
$$$$

     RDKit          3D

 46 52  0  0  0  0  0  0  0  0999 V2000
   -7.6410    4.9930    6.8080 C   0  0  0  0  0  0  0  0  0  1  0  0
   -7.7310    4.0530    5.7140 C   0  0  0  0  0  0  0  0  0  2  0  0
   -6.4520    5.6300    6.8680 N   0  0  0  0  0  0  0  0  0  0  0  0
   -6.2260    6.5240    7.8670 N   0  0  0  0  0  0  0  0  0  0  0  0
   -7.1930    6.7500    8.7820 C   0  0  0  0  0  0  0  0  0  0  0  0
   -8.4240    6.1170    8.7580 C   0  0  0  0  0  0  0  0  0  0  0  0
   -9.3950    6.3570    9.7450 N   0  0  0  0  0  0  0  0  0  0  0  0
  -10.5620    5.6840    9.7600 C   0  0  0  0  0  0  0  0  0  0  0  0
  -11.5770    5.6820   10.5960 N   0  0  0  0  0  0  0  0  0  0  0  0
  -12.4690    4.7490   10.1080 N   0  0  0  0  0  0  0  0  0  0  0  0
  -12.0160    4.1880    8.9920 N   0  0  0  0  0  0  0  0  0  0  0  0
  -10.8400    4.7900    8.7610 N   0  0  0  0  0  0  0  0  0  0  0  0
   -9.9950    4.4790    7.6090 C   0  0  0  0  0  0  0  0  0  0  0  0
   -8.6630    5.2070    7.7200 C   0  0  0  0  0  0  0  0  0  0  0  0
  -10.7490    4.8610    6.3730 C   0  0  0  0  0  0  0  0  0  0  0  0
  -11.0350    6.2020    6.1170 C   0  0  0  0  0  0  0  0  0  0  0  0
  -11.7370    6.5580    4.9650 C   0  0  0  0  0  0  0  0  0  0  0  0
  -12.1550    5.5730    4.0710 C   0  0  0  0  0  0  0  0  0  0  0  0
  -11.8700    4.2310    4.3270 C   0  0  0  0  0  0  0  0  0  0  0  0
  -11.1660    3.8760    5.4790 C   0  0  0  0  0  0  0  0  0  0  0  0
  -12.0160    7.8660    4.7150 O   0  0  0  0  0  0  0  0  0  0  0  0
   -6.8990    7.6510    9.7710 O   0  0  0  0  0  0  0  0  0  0  0  0
   -6.8724    3.0448    5.4318 N   0  0  0  0  0  0  0  0  0  0  0  0
   -7.3303    2.3675    4.3927 N   0  0  0  0  0  0  0  0  0  0  0  0
   -8.4969    2.9192    4.0202 C   0  0  0  0  0  0  0  0  0  0  0  0
   -9.3932    2.3692    2.7615 S   0  0  0  0  0  0  0  0  0  0  0  0
   -8.8146    3.9697    4.8082 N   0  0  0  0  0  0  0  0  0  0  0  0
   -9.9327    4.9144    4.6491 C   0  0  0  0  0  0  0  0  0  0  0  0
   -9.4493    6.3502    4.3857 C   0  0  0  0  0  0  0  0  0  0  0  0
   -8.3862    6.4154    3.3263 C   0  0  0  0  0  0  0  0  0  0  0  0
   -7.2278    6.7968    3.6457 O   0  0  0  0  0  0  0  0  0  0  0  0
   -8.6932    6.0523    1.9679 N   0  0  0  0  0  0  0  0  0  0  0  0
   -7.7686    6.1558    0.8269 C   0  0  0  0  0  0  0  0  0  0  0  0
   -6.3558    5.7053    1.1861 C   0  0  0  0  0  0  0  0  0  0  0  0
   -6.1649    4.3864    1.6340 C   0  0  0  0  0  0  0  0  0  0  0  0
   -4.8973    3.9305    2.0046 C   0  0  0  0  0  0  0  0  0  0  0  0
   -3.7960    4.7847    1.9185 C   0  0  0  0  0  0  0  0  0  0  0  0
   -3.9612    6.0928    1.4561 C   0  0  0  0  0  0  0  0  0  0  0  0
   -5.2293    6.5522    1.0874 C   0  0  0  0  0  0  0  0  0  0  0  0
   -7.8613    7.5285    0.1754 C   0  0  0  0  0  0  0  0  0  0  0  0
   -7.7524    8.7124    0.9309 C   0  0  0  0  0  0  0  0  0  0  0  0
   -7.7986    9.9621    0.3058 C   0  0  0  0  0  0  0  0  0  0  0  0
   -7.9724   10.0547   -1.0812 C   0  0  0  0  0  0  0  0  0  0  0  0
   -7.9709   11.3927   -1.7604 C   0  0  0  0  0  0  0  0  0  0  0  0
   -8.0752    8.8812   -1.8397 C   0  0  0  0  0  0  0  0  0  0  0  0
   -8.0221    7.6309   -1.2174 C   0  0  0  0  0  0  0  0  0  0  0  0
  1  3  4  0
  1 14  4  0
  1  2  1  0
  3  4  4  0
  4  5  4  0
  5  6  4  0
  5 22  1  0
  6  7  1  0
  6 14  4  0
  7  8  1  0
  8  9  4  0
  8 12  4  0
  9 10  4  0
 10 11  4  0
 11 12  4  0
 12 13  1  0
 13 14  1  0
 13 15  1  6
 15 16  4  0
 15 20  4  0
 16 17  4  0
 17 18  4  0
 17 21  1  0
 18 19  4  0
 19 20  4  0
 23 24  4  0
 24 25  4  0
 25 26  2  0
 25 27  4  0
 27 28  1  0
 28 29  1  0
 29 30  1  0
 30 31  2  0
 30 32  1  0
 32 33  1  0
 33 34  1  0
 34 35  4  0
 35 36  4  0
 36 37  4  0
 37 38  4  0
 38 39  4  0
 33 40  1  0
 40 41  4  0
 41 42  4  0
 42 43  4  0
 43 44  1  0
 43 45  4  0
 45 46  4  0
 39 34  4  0
 46 40  4  0
  2 23  4  0
  2 27  4  0
M  END
$$$$

     RDKit          3D

 42 48  0  0  0  0  0  0  0  0999 V2000
   -7.6410    4.9930    6.8080 C   0  0  0  0  0  0  0  0  0  1  0  0
   -7.7310    4.0530    5.7140 C   0  0  0  0  0  0  0  0  0  2  0  0
   -6.4520    5.6300    6.8680 N   0  0  0  0  0  0  0  0  0  0  0  0
   -6.2260    6.5240    7.8670 N   0  0  0  0  0  0  0  0  0  0  0  0
   -7.1930    6.7500    8.7820 C   0  0  0  0  0  0  0  0  0  0  0  0
   -8.4240    6.1170    8.7580 C   0  0  0  0  0  0  0  0  0  0  0  0
   -9.3950    6.3570    9.7450 N   0  0  0  0  0  0  0  0  0  0  0  0
  -10.5620    5.6840    9.7600 C   0  0  0  0  0  0  0  0  0  0  0  0
  -11.5770    5.6820   10.5960 N   0  0  0  0  0  0  0  0  0  0  0  0
  -12.4690    4.7490   10.1080 N   0  0  0  0  0  0  0  0  0  0  0  0
  -12.0160    4.1880    8.9920 N   0  0  0  0  0  0  0  0  0  0  0  0
  -10.8400    4.7900    8.7610 N   0  0  0  0  0  0  0  0  0  0  0  0
   -9.9950    4.4790    7.6090 C   0  0  0  0  0  0  0  0  0  0  0  0
   -8.6630    5.2070    7.7200 C   0  0  0  0  0  0  0  0  0  0  0  0
  -10.7490    4.8610    6.3730 C   0  0  0  0  0  0  0  0  0  0  0  0
  -11.0350    6.2020    6.1170 C   0  0  0  0  0  0  0  0  0  0  0  0
  -11.7370    6.5580    4.9650 C   0  0  0  0  0  0  0  0  0  0  0  0
  -12.1550    5.5730    4.0710 C   0  0  0  0  0  0  0  0  0  0  0  0
  -11.8700    4.2310    4.3270 C   0  0  0  0  0  0  0  0  0  0  0  0
  -11.1660    3.8760    5.4790 C   0  0  0  0  0  0  0  0  0  0  0  0
  -12.0160    7.8660    4.7150 O   0  0  0  0  0  0  0  0  0  0  0  0
   -6.8990    7.6510    9.7710 O   0  0  0  0  0  0  0  0  0  0  0  0
   -6.7497    3.1716    5.3769 N   0  0  0  0  0  0  0  0  0  0  0  0
   -6.8228    2.2543    4.3998 N   0  0  0  0  0  0  0  0  0  0  0  0
   -5.6382    1.4352    4.1301 C   0  0  0  0  0  0  0  0  0  0  0  0
   -4.9008    1.9800    2.9465 C   0  0  0  0  0  0  0  0  0  0  0  0
   -4.7614    1.2662    1.9165 O   0  0  0  0  0  0  0  0  0  0  0  0
   -4.3671    3.3110    2.9866 N   0  0  0  0  0  0  0  0  0  0  0  0
   -3.9130    4.0147    1.7890 C   0  0  0  0  0  0  0  0  0  0  0  0
   -5.1108    4.5995    1.0180 C   0  0  0  0  0  0  0  0  0  0  0  0
   -4.6611    5.4344   -0.1725 C   0  0  0  0  0  0  0  0  0  0  0  0
   -4.7142    4.4607   -1.3073 C   0  0  0  0  0  0  0  0  0  0  0  0
   -5.7524    3.4539   -0.8498 C   0  0  0  0  0  0  0  0  0  0  0  0
   -5.9368    3.5574    0.5458 O   0  0  0  0  0  0  0  0  0  0  0  0
   -7.9609    2.1287    3.6394 C   0  0  0  0  0  0  0  0  0  0  0  0
   -8.0312    1.2797    2.7083 O   0  0  0  0  0  0  0  0  0  0  0  0
   -9.0405    2.9675    3.9067 C   0  0  0  0  0  0  0  0  0  0  0  0
  -10.2087    2.9731    3.2117 N   0  0  0  0  0  0  0  0  0  0  0  0
  -11.0450    3.9318    3.6775 C   0  0  0  0  0  0  0  0  0  0  0  0
  -12.4199    4.1497    3.1448 C   0  0  0  0  0  0  0  0  0  0  0  0
  -10.3746    4.7906    4.9704 S   0  0  0  0  0  0  0  0  0  0  0  0
   -8.9488    3.8953    4.9245 C   0  0  0  0  0  0  0  0  0  0  0  0
  1  3  4  0
  1 14  4  0
  1  2  1  0
  3  4  4  0
  4  5  4  0
  5  6  4  0
  5 22  1  0
  6  7  1  0
  6 14  4  0
  7  8  1  0
  8  9  4  0
  8 12  4  0
  9 10  4  0
 10 11  4  0
 11 12  4  0
 12 13  1  0
 13 14  1  0
 13 15  1  6
 15 16  4  0
 15 20  4  0
 16 17  4  0
 17 18  4  0
 17 21  1  0
 18 19  4  0
 19 20  4  0
 23 24  4  0
 24 25  1  0
 25 26  1  0
 26 27  2  0
 26 28  1  0
 28 29  1  0
 29 30  1  0
 30 31  1  0
 31 32  1  0
 32 33  1  0
 33 34  1  0
 24 35  4  0
 35 36  2  0
 35 37  4  0
 37 38  4  0
 38 39  4  0
 39 40  1  0
 39 41  4  0
 41 42  4  0
 34 30  1  0
 42 37  4  0
  2 23  4  0
  2 42  4  0
M  END
$$$$

     RDKit          3D

 42 48  0  0  0  0  0  0  0  0999 V2000
   -7.6410    4.9930    6.8080 C   0  0  0  0  0  0  0  0  0  1  0  0
   -7.7310    4.0530    5.7140 C   0  0  0  0  0  0  0  0  0  2  0  0
   -6.4520    5.6300    6.8680 N   0  0  0  0  0  0  0  0  0  0  0  0
   -6.2260    6.5240    7.8670 N   0  0  0  0  0  0  0  0  0  0  0  0
   -7.1930    6.7500    8.7820 C   0  0  0  0  0  0  0  0  0  0  0  0
   -8.4240    6.1170    8.7580 C   0  0  0  0  0  0  0  0  0  0  0  0
   -9.3950    6.3570    9.7450 N   0  0  0  0  0  0  0  0  0  0  0  0
  -10.5620    5.6840    9.7600 C   0  0  0  0  0  0  0  0  0  0  0  0
  -11.5770    5.6820   10.5960 N   0  0  0  0  0  0  0  0  0  0  0  0
  -12.4690    4.7490   10.1080 N   0  0  0  0  0  0  0  0  0  0  0  0
  -12.0160    4.1880    8.9920 N   0  0  0  0  0  0  0  0  0  0  0  0
  -10.8400    4.7900    8.7610 N   0  0  0  0  0  0  0  0  0  0  0  0
   -9.9950    4.4790    7.6090 C   0  0  0  0  0  0  0  0  0  0  0  0
   -8.6630    5.2070    7.7200 C   0  0  0  0  0  0  0  0  0  0  0  0
  -10.7490    4.8610    6.3730 C   0  0  0  0  0  0  0  0  0  0  0  0
  -11.0350    6.2020    6.1170 C   0  0  0  0  0  0  0  0  0  0  0  0
  -11.7370    6.5580    4.9650 C   0  0  0  0  0  0  0  0  0  0  0  0
  -12.1550    5.5730    4.0710 C   0  0  0  0  0  0  0  0  0  0  0  0
  -11.8700    4.2310    4.3270 C   0  0  0  0  0  0  0  0  0  0  0  0
  -11.1660    3.8760    5.4790 C   0  0  0  0  0  0  0  0  0  0  0  0
  -12.0160    7.8660    4.7150 O   0  0  0  0  0  0  0  0  0  0  0  0
   -6.8990    7.6510    9.7710 O   0  0  0  0  0  0  0  0  0  0  0  0
   -6.7627    3.1503    5.3953 N   0  0  0  0  0  0  0  0  0  0  0  0
   -6.8367    2.2393    4.4128 N   0  0  0  0  0  0  0  0  0  0  0  0
   -5.6999    1.3349    4.2212 C   0  0  0  0  0  0  0  0  0  0  0  0
   -5.9665    0.0335    4.9141 C   0  0  0  0  0  0  0  0  0  0  0  0
   -6.0216    0.0053    6.1733 O   0  0  0  0  0  0  0  0  0  0  0  0
   -6.1852   -1.1627    4.1535 N   0  0  0  0  0  0  0  0  0  0  0  0
   -6.6400   -2.4087    4.7667 C   0  0  0  0  0  0  0  0  0  0  0  0
   -8.1216   -2.3048    5.1678 C   0  0  0  0  0  0  0  0  0  0  0  0
   -8.6336   -3.6069    5.7680 C   0  0  0  0  0  0  0  0  0  0  0  0
   -9.2974   -4.2796    4.6085 C   0  0  0  0  0  0  0  0  0  0  0  0
   -9.6740   -3.1226    3.7051 C   0  0  0  0  0  0  0  0  0  0  0  0
   -8.8972   -1.9906    4.0318 O   0  0  0  0  0  0  0  0  0  0  0  0
   -7.9724    2.1225    3.6473 C   0  0  0  0  0  0  0  0  0  0  0  0
   -8.0566    1.2566    2.7334 O   0  0  0  0  0  0  0  0  0  0  0  0
   -9.0368    2.9847    3.8946 C   0  0  0  0  0  0  0  0  0  0  0  0
  -10.1943    3.0118    3.1831 N   0  0  0  0  0  0  0  0  0  0  0  0
  -11.0254    3.9764    3.6453 C   0  0  0  0  0  0  0  0  0  0  0  0
  -12.3398    4.2915    3.0183 C   0  0  0  0  0  0  0  0  0  0  0  0
  -10.3417    4.8481    4.9231 S   0  0  0  0  0  0  0  0  0  0  0  0
   -8.9392    3.9163    4.9078 C   0  0  0  0  0  0  0  0  0  0  0  0
  1  3  4  0
  1 14  4  0
  1  2  1  0
  3  4  4  0
  4  5  4  0
  5  6  4  0
  5 22  1  0
  6  7  1  0
  6 14  4  0
  7  8  1  0
  8  9  4  0
  8 12  4  0
  9 10  4  0
 10 11  4  0
 11 12  4  0
 12 13  1  0
 13 14  1  0
 13 15  1  6
 15 16  4  0
 15 20  4  0
 16 17  4  0
 17 18  4  0
 17 21  1  0
 18 19  4  0
 19 20  4  0
 23 24  4  0
 24 25  1  0
 25 26  1  0
 26 27  2  0
 26 28  1  0
 28 29  1  0
 29 30  1  0
 30 31  1  0
 31 32  1  0
 32 33  1  0
 33 34  1  0
 24 35  4  0
 35 36  2  0
 35 37  4  0
 37 38  4  0
 38 39  4  0
 39 40  1  0
 39 41  4  0
 41 42  4  0
 34 30  1  0
 42 37  4  0
  2 23  4  0
  2 42  4  0
M  END
$$$$

     RDKit          3D

 42 48  0  0  0  0  0  0  0  0999 V2000
   -7.6410    4.9930    6.8080 C   0  0  0  0  0  0  0  0  0  1  0  0
   -7.7310    4.0530    5.7140 C   0  0  0  0  0  0  0  0  0  2  0  0
   -6.4520    5.6300    6.8680 N   0  0  0  0  0  0  0  0  0  0  0  0
   -6.2260    6.5240    7.8670 N   0  0  0  0  0  0  0  0  0  0  0  0
   -7.1930    6.7500    8.7820 C   0  0  0  0  0  0  0  0  0  0  0  0
   -8.4240    6.1170    8.7580 C   0  0  0  0  0  0  0  0  0  0  0  0
   -9.3950    6.3570    9.7450 N   0  0  0  0  0  0  0  0  0  0  0  0
  -10.5620    5.6840    9.7600 C   0  0  0  0  0  0  0  0  0  0  0  0
  -11.5770    5.6820   10.5960 N   0  0  0  0  0  0  0  0  0  0  0  0
  -12.4690    4.7490   10.1080 N   0  0  0  0  0  0  0  0  0  0  0  0
  -12.0160    4.1880    8.9920 N   0  0  0  0  0  0  0  0  0  0  0  0
  -10.8400    4.7900    8.7610 N   0  0  0  0  0  0  0  0  0  0  0  0
   -9.9950    4.4790    7.6090 C   0  0  0  0  0  0  0  0  0  0  0  0
   -8.6630    5.2070    7.7200 C   0  0  0  0  0  0  0  0  0  0  0  0
  -10.7490    4.8610    6.3730 C   0  0  0  0  0  0  0  0  0  0  0  0
  -11.0350    6.2020    6.1170 C   0  0  0  0  0  0  0  0  0  0  0  0
  -11.7370    6.5580    4.9650 C   0  0  0  0  0  0  0  0  0  0  0  0
  -12.1550    5.5730    4.0710 C   0  0  0  0  0  0  0  0  0  0  0  0
  -11.8700    4.2310    4.3270 C   0  0  0  0  0  0  0  0  0  0  0  0
  -11.1660    3.8760    5.4790 C   0  0  0  0  0  0  0  0  0  0  0  0
  -12.0160    7.8660    4.7150 O   0  0  0  0  0  0  0  0  0  0  0  0
   -6.8990    7.6510    9.7710 O   0  0  0  0  0  0  0  0  0  0  0  0
   -6.7604    3.1543    5.3899 N   0  0  0  0  0  0  0  0  0  0  0  0
   -6.8339    2.2453    4.4052 N   0  0  0  0  0  0  0  0  0  0  0  0
   -5.6873    1.3568    4.1964 C   0  0  0  0  0  0  0  0  0  0  0  0
   -5.9295    0.0367    4.8645 C   0  0  0  0  0  0  0  0  0  0  0  0
   -6.0522   -0.0050    6.1187 O   0  0  0  0  0  0  0  0  0  0  0  0
   -6.0212   -1.1638    4.0829 N   0  0  0  0  0  0  0  0  0  0  0  0
   -6.1266   -2.4978    4.6767 C   0  0  0  0  0  0  0  0  0  0  0  0
   -4.8024   -3.2694    4.5483 C   0  0  0  0  0  0  0  0  0  0  0  0
   -3.6675   -2.6280    5.3447 C   0  0  0  0  0  0  0  0  0  0  0  0
   -2.8095   -2.0042    4.2888 C   0  0  0  0  0  0  0  0  0  0  0  0
   -3.1326   -2.8258    3.0609 C   0  0  0  0  0  0  0  0  0  0  0  0
   -4.4319   -3.3548    3.1877 O   0  0  0  0  0  0  0  0  0  0  0  0
   -7.9711    2.1270    3.6421 C   0  0  0  0  0  0  0  0  0  0  0  0
   -8.0527    1.2660    2.7230 O   0  0  0  0  0  0  0  0  0  0  0  0
   -9.0392    2.9826    3.8965 C   0  0  0  0  0  0  0  0  0  0  0  0
  -10.1991    3.0063    3.1885 N   0  0  0  0  0  0  0  0  0  0  0  0
  -11.0327    3.9661    3.6560 C   0  0  0  0  0  0  0  0  0  0  0  0
  -12.3508    4.2779    3.0346 C   0  0  0  0  0  0  0  0  0  0  0  0
  -10.3481    4.8385    4.9329 S   0  0  0  0  0  0  0  0  0  0  0  0
   -8.9420    3.9120    4.9122 C   0  0  0  0  0  0  0  0  0  0  0  0
  1  3  4  0
  1 14  4  0
  1  2  1  0
  3  4  4  0
  4  5  4  0
  5  6  4  0
  5 22  1  0
  6  7  1  0
  6 14  4  0
  7  8  1  0
  8  9  4  0
  8 12  4  0
  9 10  4  0
 10 11  4  0
 11 12  4  0
 12 13  1  0
 13 14  1  0
 13 15  1  6
 15 16  4  0
 15 20  4  0
 16 17  4  0
 17 18  4  0
 17 21  1  0
 18 19  4  0
 19 20  4  0
 23 24  4  0
 24 25  1  0
 25 26  1  0
 26 27  2  0
 26 28  1  0
 28 29  1  0
 29 30  1  0
 30 31  1  0
 31 32  1  0
 32 33  1  0
 33 34  1  0
 24 35  4  0
 35 36  2  0
 35 37  4  0
 37 38  4  0
 38 39  4  0
 39 40  1  0
 39 41  4  0
 41 42  4  0
 34 30  1  0
 42 37  4  0
  2 23  4  0
  2 42  4  0
M  END
$$$$

     RDKit          3D

 37 42  0  0  0  0  0  0  0  0999 V2000
   -7.6410    4.9930    6.8080 C   0  0  0  0  0  0  0  0  0  1  0  0
   -7.7310    4.0530    5.7140 C   0  0  0  0  0  0  0  0  0  2  0  0
   -6.4520    5.6300    6.8680 N   0  0  0  0  0  0  0  0  0  0  0  0
   -6.2260    6.5240    7.8670 N   0  0  0  0  0  0  0  0  0  0  0  0
   -7.1930    6.7500    8.7820 C   0  0  0  0  0  0  0  0  0  0  0  0
   -8.4240    6.1170    8.7580 C   0  0  0  0  0  0  0  0  0  0  0  0
   -9.3950    6.3570    9.7450 N   0  0  0  0  0  0  0  0  0  0  0  0
  -10.5620    5.6840    9.7600 C   0  0  0  0  0  0  0  0  0  0  0  0
  -11.5770    5.6820   10.5960 N   0  0  0  0  0  0  0  0  0  0  0  0
  -12.4690    4.7490   10.1080 N   0  0  0  0  0  0  0  0  0  0  0  0
  -12.0160    4.1880    8.9920 N   0  0  0  0  0  0  0  0  0  0  0  0
  -10.8400    4.7900    8.7610 N   0  0  0  0  0  0  0  0  0  0  0  0
   -9.9950    4.4790    7.6090 C   0  0  0  0  0  0  0  0  0  0  0  0
   -8.6630    5.2070    7.7200 C   0  0  0  0  0  0  0  0  0  0  0  0
  -10.7490    4.8610    6.3730 C   0  0  0  0  0  0  0  0  0  0  0  0
  -11.0350    6.2020    6.1170 C   0  0  0  0  0  0  0  0  0  0  0  0
  -11.7370    6.5580    4.9650 C   0  0  0  0  0  0  0  0  0  0  0  0
  -12.1550    5.5730    4.0710 C   0  0  0  0  0  0  0  0  0  0  0  0
  -11.8700    4.2310    4.3270 C   0  0  0  0  0  0  0  0  0  0  0  0
  -11.1660    3.8760    5.4790 C   0  0  0  0  0  0  0  0  0  0  0  0
  -12.0160    7.8660    4.7150 O   0  0  0  0  0  0  0  0  0  0  0  0
   -6.8990    7.6510    9.7710 O   0  0  0  0  0  0  0  0  0  0  0  0
   -6.8446    2.9726    5.5516 C   0  0  0  0  0  0  0  0  0  0  0  0
   -6.9792    2.0239    4.5292 C   0  0  0  0  0  0  0  0  0  1  0  0
   -6.0101    0.9138    4.3714 C   0  0  0  0  0  0  0  0  0  2  0  0
   -6.4787   -0.3678    4.0295 C   0  0  0  0  0  0  0  0  0  0  0  0
   -5.5858   -1.4319    3.8747 C   0  0  0  0  0  0  0  0  0  0  0  0
   -4.2158   -1.2274    4.0488 C   0  0  0  0  0  0  0  0  0  0  0  0
   -3.7350    0.0435    4.3707 C   0  0  0  0  0  0  0  0  0  0  0  0
   -4.6218    1.1140    4.5284 C   0  0  0  0  0  0  0  0  0  0  0  0
   -4.1168    2.3472    4.7857 F   0  0  0  0  0  0  0  0  0  0  0  0
   -8.0436    2.1016    3.6870 N   0  0  0  0  0  0  0  0  0  0  0  0
   -8.9800    3.0832    3.7726 C   0  0  0  0  0  0  0  0  0  0  0  0
  -10.0580    3.0890    2.8299 N   0  0  0  0  0  0  0  0  0  0  0  0
   -8.8680    4.0693    4.7753 C   0  0  0  0  0  0  0  0  0  0  0  0
   -9.8216    5.1555    4.8401 C   0  0  0  0  0  0  0  0  0  0  0  0
  -10.5837    6.0249    4.8924 N   0  0  0  0  0  0  0  0  0  0  0  0
  1  3  4  0
  1 14  4  0
  1  2  1  0
  3  4  4  0
  4  5  4  0
  5  6  4  0
  5 22  1  0
  6  7  1  0
  6 14  4  0
  7  8  1  0
  8  9  4  0
  8 12  4  0
  9 10  4  0
 10 11  4  0
 11 12  4  0
 12 13  1  0
 13 14  1  0
 13 15  1  6
 15 16  4  0
 15 20  4  0
 16 17  4  0
 17 18  4  0
 17 21  1  0
 18 19  4  0
 19 20  4  0
 23 24  4  0
 24 25  1  0
 25 26  4  0
 26 27  4  0
 27 28  4  0
 28 29  4  0
 29 30  4  0
 30 31  1  0
 24 32  4  0
 32 33  4  0
 33 34  1  0
 33 35  4  0
 35 36  1  0
 36 37  3  0
 30 25  4  0
  2 23  4  0
  2 35  4  0
M  END
$$$$

     RDKit          3D

 35 40  0  0  0  0  0  0  0  0999 V2000
   -7.6410    4.9930    6.8080 C   0  0  0  0  0  0  0  0  0  1  0  0
   -7.7310    4.0530    5.7140 C   0  0  0  0  0  0  0  0  0  2  0  0
   -6.4520    5.6300    6.8680 N   0  0  0  0  0  0  0  0  0  0  0  0
   -6.2260    6.5240    7.8670 N   0  0  0  0  0  0  0  0  0  0  0  0
   -7.1930    6.7500    8.7820 C   0  0  0  0  0  0  0  0  0  0  0  0
   -8.4240    6.1170    8.7580 C   0  0  0  0  0  0  0  0  0  0  0  0
   -9.3950    6.3570    9.7450 N   0  0  0  0  0  0  0  0  0  0  0  0
  -10.5620    5.6840    9.7600 C   0  0  0  0  0  0  0  0  0  0  0  0
  -11.5770    5.6820   10.5960 N   0  0  0  0  0  0  0  0  0  0  0  0
  -12.4690    4.7490   10.1080 N   0  0  0  0  0  0  0  0  0  0  0  0
  -12.0160    4.1880    8.9920 N   0  0  0  0  0  0  0  0  0  0  0  0
  -10.8400    4.7900    8.7610 N   0  0  0  0  0  0  0  0  0  0  0  0
   -9.9950    4.4790    7.6090 C   0  0  0  0  0  0  0  0  0  0  0  0
   -8.6630    5.2070    7.7200 C   0  0  0  0  0  0  0  0  0  0  0  0
  -10.7490    4.8610    6.3730 C   0  0  0  0  0  0  0  0  0  0  0  0
  -11.0350    6.2020    6.1170 C   0  0  0  0  0  0  0  0  0  0  0  0
  -11.7370    6.5580    4.9650 C   0  0  0  0  0  0  0  0  0  0  0  0
  -12.1550    5.5730    4.0710 C   0  0  0  0  0  0  0  0  0  0  0  0
  -11.8700    4.2310    4.3270 C   0  0  0  0  0  0  0  0  0  0  0  0
  -11.1660    3.8760    5.4790 C   0  0  0  0  0  0  0  0  0  0  0  0
  -12.0160    7.8660    4.7150 O   0  0  0  0  0  0  0  0  0  0  0  0
   -6.8990    7.6510    9.7710 O   0  0  0  0  0  0  0  0  0  0  0  0
   -7.0719    2.8547    5.4676 C   0  0  0  0  0  0  0  0  0  0  0  0
   -7.5464    2.2110    4.3841 N   0  0  0  0  0  0  0  0  0  0  0  0
   -8.5800    2.9712    3.9653 C   0  0  0  0  0  0  0  0  0  0  0  0
   -8.7829    4.0569    4.7434 N   0  0  0  0  0  0  0  0  0  0  0  0
   -9.6898    5.1809    4.4593 C   0  0  0  0  0  0  0  0  0  0  0  0
  -11.1156    4.6786    4.2004 C   0  0  0  0  0  0  0  0  0  0  0  0
   -9.1629    6.0001    3.2695 C   0  0  0  0  0  0  0  0  0  0  0  0
   -7.8068    6.5166    3.5731 N   0  0  0  0  0  0  0  0  0  0  0  0
   -6.9165    6.5179    2.3958 C   0  0  0  0  0  0  0  0  0  0  0  0
   -7.2323    7.6939    1.4631 C   0  0  0  0  0  0  0  0  0  0  0  0
   -7.0986    8.9183    2.1553 O   0  0  0  0  0  0  0  0  0  0  0  0
   -8.0500    8.9801    3.1993 C   0  0  0  0  0  0  0  0  0  0  0  0
   -7.8301    7.8463    4.2196 C   0  0  0  0  0  0  0  0  0  0  0  0
  1  3  4  0
  1 14  4  0
  1  2  1  0
  3  4  4  0
  4  5  4  0
  5  6  4  0
  5 22  1  0
  6  7  1  0
  6 14  4  0
  7  8  1  0
  8  9  4  0
  8 12  4  0
  9 10  4  0
 10 11  4  0
 11 12  4  0
 12 13  1  0
 13 14  1  0
 13 15  1  6
 15 16  4  0
 15 20  4  0
 16 17  4  0
 17 18  4  0
 17 21  1  0
 18 19  4  0
 19 20  4  0
 23 24  4  0
 24 25  4  0
 25 26  4  0
 26 27  1  0
 27 28  1  0
 27 29  1  0
 29 30  1  0
 30 31  1  0
 31 32  1  0
 32 33  1  0
 33 34  1  0
 34 35  1  0
 35 30  1  0
  2 23  4  0
  2 26  4  0
M  END
$$$$

     RDKit          3D

 41 47  0  0  0  0  0  0  0  0999 V2000
   -7.6410    4.9930    6.8080 C   0  0  0  0  0  0  0  0  0  1  0  0
   -7.7310    4.0530    5.7140 C   0  0  0  0  0  0  0  0  0  2  0  0
   -6.4520    5.6300    6.8680 N   0  0  0  0  0  0  0  0  0  0  0  0
   -6.2260    6.5240    7.8670 N   0  0  0  0  0  0  0  0  0  0  0  0
   -7.1930    6.7500    8.7820 C   0  0  0  0  0  0  0  0  0  0  0  0
   -8.4240    6.1170    8.7580 C   0  0  0  0  0  0  0  0  0  0  0  0
   -9.3950    6.3570    9.7450 N   0  0  0  0  0  0  0  0  0  0  0  0
  -10.5620    5.6840    9.7600 C   0  0  0  0  0  0  0  0  0  0  0  0
  -11.5770    5.6820   10.5960 N   0  0  0  0  0  0  0  0  0  0  0  0
  -12.4690    4.7490   10.1080 N   0  0  0  0  0  0  0  0  0  0  0  0
  -12.0160    4.1880    8.9920 N   0  0  0  0  0  0  0  0  0  0  0  0
  -10.8400    4.7900    8.7610 N   0  0  0  0  0  0  0  0  0  0  0  0
   -9.9950    4.4790    7.6090 C   0  0  0  0  0  0  0  0  0  0  0  0
   -8.6630    5.2070    7.7200 C   0  0  0  0  0  0  0  0  0  0  0  0
  -10.7490    4.8610    6.3730 C   0  0  0  0  0  0  0  0  0  0  0  0
  -11.0350    6.2020    6.1170 C   0  0  0  0  0  0  0  0  0  0  0  0
  -11.7370    6.5580    4.9650 C   0  0  0  0  0  0  0  0  0  0  0  0
  -12.1550    5.5730    4.0710 C   0  0  0  0  0  0  0  0  0  0  0  0
  -11.8700    4.2310    4.3270 C   0  0  0  0  0  0  0  0  0  0  0  0
  -11.1660    3.8760    5.4790 C   0  0  0  0  0  0  0  0  0  0  0  0
  -12.0160    7.8660    4.7150 O   0  0  0  0  0  0  0  0  0  0  0  0
   -6.8990    7.6510    9.7710 O   0  0  0  0  0  0  0  0  0  0  0  0
   -6.7711    3.2364    5.2179 N   0  0  0  0  0  0  0  0  0  0  0  0
   -7.2444    2.4665    4.2451 N   0  0  0  0  0  0  0  0  0  0  0  0
   -8.5476    2.7401    4.0814 C   0  0  0  0  0  0  0  0  0  0  0  0
   -9.4270    2.1986    3.1489 C   0  0  0  0  0  0  0  0  0  0  0  0
  -10.7458    2.6869    3.1340 C   0  0  0  0  0  0  0  0  0  0  0  0
  -11.1524    3.7017    4.0390 C   0  0  0  0  0  0  0  0  0  0  0  0
  -12.5487    4.2583    3.9704 C   0  0  0  0  0  0  0  0  0  0  0  0
  -12.6121    5.4313    2.9863 C   0  0  0  0  0  0  0  0  0  0  0  0
  -14.0337    6.0076    2.9080 C   0  0  0  0  0  0  0  0  0  0  0  0
  -14.1144    7.2752    2.0417 C   0  0  0  0  0  0  0  0  0  0  0  0
  -13.9768    6.9792    0.5404 C   0  0  0  0  0  0  0  0  0  0  0  0
  -14.1394    8.2224   -0.2447 N   0  0  0  0  0  0  0  0  0  0  0  0
  -15.5578    8.4896   -0.5528 C   0  0  0  0  0  0  0  0  0  0  0  0
  -15.6887    9.8260   -1.3150 C   0  0  0  0  0  0  0  0  0  0  0  0
  -14.4358   10.3269   -1.7490 O   0  0  0  0  0  0  0  0  0  0  0  0
  -13.7322    9.3181   -2.4447 C   0  0  0  0  0  0  0  0  0  0  0  0
  -13.3626    8.1566   -1.5004 C   0  0  0  0  0  0  0  0  0  0  0  0
  -10.2227    4.2376    4.9589 C   0  0  0  0  0  0  0  0  0  0  0  0
   -8.9309    3.7090    4.9657 C   0  0  0  0  0  0  0  0  0  0  0  0
  1  3  4  0
  1 14  4  0
  1  2  1  0
  3  4  4  0
  4  5  4  0
  5  6  4  0
  5 22  1  0
  6  7  1  0
  6 14  4  0
  7  8  1  0
  8  9  4  0
  8 12  4  0
  9 10  4  0
 10 11  4  0
 11 12  4  0
 12 13  1  0
 13 14  1  0
 13 15  1  6
 15 16  4  0
 15 20  4  0
 16 17  4  0
 17 18  4  0
 17 21  1  0
 18 19  4  0
 19 20  4  0
 23 24  4  0
 24 25  4  0
 25 26  4  0
 26 27  4  0
 27 28  4  0
 28 29  1  0
 29 30  1  0
 30 31  1  0
 31 32  1  0
 32 33  1  0
 33 34  1  0
 34 35  1  0
 35 36  1  0
 36 37  1  0
 37 38  1  0
 38 39  1  0
 28 40  4  0
 40 41  4  0
 41 25  4  0
 39 34  1  0
  2 23  4  0
  2 41  4  0
M  END
$$$$

     RDKit          3D

 41 47  0  0  0  0  0  0  0  0999 V2000
   -7.6410    4.9930    6.8080 C   0  0  0  0  0  0  0  0  0  1  0  0
   -7.7310    4.0530    5.7140 C   0  0  0  0  0  0  0  0  0  2  0  0
   -6.4520    5.6300    6.8680 N   0  0  0  0  0  0  0  0  0  0  0  0
   -6.2260    6.5240    7.8670 N   0  0  0  0  0  0  0  0  0  0  0  0
   -7.1930    6.7500    8.7820 C   0  0  0  0  0  0  0  0  0  0  0  0
   -8.4240    6.1170    8.7580 C   0  0  0  0  0  0  0  0  0  0  0  0
   -9.3950    6.3570    9.7450 N   0  0  0  0  0  0  0  0  0  0  0  0
  -10.5620    5.6840    9.7600 C   0  0  0  0  0  0  0  0  0  0  0  0
  -11.5770    5.6820   10.5960 N   0  0  0  0  0  0  0  0  0  0  0  0
  -12.4690    4.7490   10.1080 N   0  0  0  0  0  0  0  0  0  0  0  0
  -12.0160    4.1880    8.9920 N   0  0  0  0  0  0  0  0  0  0  0  0
  -10.8400    4.7900    8.7610 N   0  0  0  0  0  0  0  0  0  0  0  0
   -9.9950    4.4790    7.6090 C   0  0  0  0  0  0  0  0  0  0  0  0
   -8.6630    5.2070    7.7200 C   0  0  0  0  0  0  0  0  0  0  0  0
  -10.7490    4.8610    6.3730 C   0  0  0  0  0  0  0  0  0  0  0  0
  -11.0350    6.2020    6.1170 C   0  0  0  0  0  0  0  0  0  0  0  0
  -11.7370    6.5580    4.9650 C   0  0  0  0  0  0  0  0  0  0  0  0
  -12.1550    5.5730    4.0710 C   0  0  0  0  0  0  0  0  0  0  0  0
  -11.8700    4.2310    4.3270 C   0  0  0  0  0  0  0  0  0  0  0  0
  -11.1660    3.8760    5.4790 C   0  0  0  0  0  0  0  0  0  0  0  0
  -12.0160    7.8660    4.7150 O   0  0  0  0  0  0  0  0  0  0  0  0
   -6.8990    7.6510    9.7710 O   0  0  0  0  0  0  0  0  0  0  0  0
   -6.7107    2.7714    5.3355 S   0  0  0  0  0  0  0  0  0  0  0  0
   -7.6292    2.2064    4.0399 C   0  0  0  0  0  0  0  0  0  0  0  0
   -7.2836    1.1147    3.1759 N   0  0  0  0  0  0  0  0  0  0  0  0
   -6.2310    0.1732    3.4466 C   0  0  0  0  0  0  0  0  0  0  0  0
   -5.8055    0.0279    4.6250 O   0  0  0  0  0  0  0  0  0  0  0  0
   -5.6650   -0.6665    2.3627 C   0  0  0  0  0  0  0  0  0  0  0  0
   -5.7641   -0.2731    1.0158 C   0  0  0  0  0  0  0  0  0  0  0  0
   -5.2136   -1.0637    0.0040 C   0  0  0  0  0  0  0  0  0  0  0  0
   -4.5501   -2.2518    0.3208 C   0  0  0  0  0  0  0  0  0  0  0  0
   -4.4712   -2.6769    1.6587 C   0  0  0  0  0  0  0  0  0  0  0  0
   -5.0082   -1.8717    2.6735 C   0  0  0  0  0  0  0  0  0  0  0  0
   -3.9244   -3.9651    1.9821 N   0  0  0  0  0  0  0  0  0  0  0  0
   -3.8534   -5.0166    1.0093 C   0  0  0  0  0  0  0  0  0  0  0  0
   -3.4084   -6.1474    1.3417 O   0  0  0  0  0  0  0  0  0  0  0  0
   -4.3535   -4.7931   -0.3859 C   0  0  0  0  0  0  0  0  0  0  0  0
   -3.7401   -3.1891   -0.9836 S   0  0  0  0  0  0  0  0  0  0  0  0
   -8.7302    2.9639    3.8441 N   0  0  0  0  0  0  0  0  0  0  0  0
   -8.8269    3.9726    4.7526 C   0  0  0  0  0  0  0  0  0  0  0  0
   -9.9500    4.9594    4.6845 C   0  0  0  0  0  0  0  0  0  0  0  0
  1  3  4  0
  1 14  4  0
  1  2  1  0
  3  4  4  0
  4  5  4  0
  5  6  4  0
  5 22  1  0
  6  7  1  0
  6 14  4  0
  7  8  1  0
  8  9  4  0
  8 12  4  0
  9 10  4  0
 10 11  4  0
 11 12  4  0
 12 13  1  0
 13 14  1  0
 13 15  1  6
 15 16  4  0
 15 20  4  0
 16 17  4  0
 17 18  4  0
 17 21  1  0
 18 19  4  0
 19 20  4  0
 23 24  4  0
 24 25  1  0
 25 26  1  0
 26 27  2  0
 26 28  1  0
 28 29  4  0
 29 30  4  0
 30 31  4  0
 31 32  4  0
 32 33  4  0
 32 34  1  0
 34 35  1  0
 35 36  2  0
 35 37  1  0
 37 38  1  0
 24 39  4  0
 39 40  4  0
 40 41  1  0
 33 28  4  0
 38 31  1  0
  2 23  4  0
  2 40  4  0
M  END
$$$$

     RDKit          3D

 41 47  0  0  0  0  0  0  0  0999 V2000
   -7.6410    4.9930    6.8080 C   0  0  0  0  0  0  0  0  0  1  0  0
   -7.7310    4.0530    5.7140 C   0  0  0  0  0  0  0  0  0  2  0  0
   -6.4520    5.6300    6.8680 N   0  0  0  0  0  0  0  0  0  0  0  0
   -6.2260    6.5240    7.8670 N   0  0  0  0  0  0  0  0  0  0  0  0
   -7.1930    6.7500    8.7820 C   0  0  0  0  0  0  0  0  0  0  0  0
   -8.4240    6.1170    8.7580 C   0  0  0  0  0  0  0  0  0  0  0  0
   -9.3950    6.3570    9.7450 N   0  0  0  0  0  0  0  0  0  0  0  0
  -10.5620    5.6840    9.7600 C   0  0  0  0  0  0  0  0  0  0  0  0
  -11.5770    5.6820   10.5960 N   0  0  0  0  0  0  0  0  0  0  0  0
  -12.4690    4.7490   10.1080 N   0  0  0  0  0  0  0  0  0  0  0  0
  -12.0160    4.1880    8.9920 N   0  0  0  0  0  0  0  0  0  0  0  0
  -10.8400    4.7900    8.7610 N   0  0  0  0  0  0  0  0  0  0  0  0
   -9.9950    4.4790    7.6090 C   0  0  0  0  0  0  0  0  0  0  0  0
   -8.6630    5.2070    7.7200 C   0  0  0  0  0  0  0  0  0  0  0  0
  -10.7490    4.8610    6.3730 C   0  0  0  0  0  0  0  0  0  0  0  0
  -11.0350    6.2020    6.1170 C   0  0  0  0  0  0  0  0  0  0  0  0
  -11.7370    6.5580    4.9650 C   0  0  0  0  0  0  0  0  0  0  0  0
  -12.1550    5.5730    4.0710 C   0  0  0  0  0  0  0  0  0  0  0  0
  -11.8700    4.2310    4.3270 C   0  0  0  0  0  0  0  0  0  0  0  0
  -11.1660    3.8760    5.4790 C   0  0  0  0  0  0  0  0  0  0  0  0
  -12.0160    7.8660    4.7150 O   0  0  0  0  0  0  0  0  0  0  0  0
   -6.8990    7.6510    9.7710 O   0  0  0  0  0  0  0  0  0  0  0  0
   -6.8482    2.6371    5.4712 S   0  0  0  0  0  0  0  0  0  0  0  0
   -7.7037    2.1514    4.1001 C   0  0  0  0  0  0  0  0  0  0  0  0
   -7.4760    0.9532    3.3442 N   0  0  0  0  0  0  0  0  0  0  0  0
   -6.3432    0.0847    3.5231 C   0  0  0  0  0  0  0  0  0  0  0  0
   -5.3126    0.5096    4.1132 O   0  0  0  0  0  0  0  0  0  0  0  0
   -6.3496   -1.2972    2.9819 C   0  0  0  0  0  0  0  0  0  0  0  0
   -7.5580   -1.9699    2.7252 C   0  0  0  0  0  0  0  0  0  0  0  0
   -7.5513   -3.2719    2.2168 C   0  0  0  0  0  0  0  0  0  0  0  0
   -6.3415   -3.9210    1.9584 C   0  0  0  0  0  0  0  0  0  0  0  0
   -5.1241   -3.2821    2.2579 C   0  0  0  0  0  0  0  0  0  0  0  0
   -5.1350   -1.9702    2.7526 C   0  0  0  0  0  0  0  0  0  0  0  0
   -3.8806   -3.9920    2.1421 N   0  0  0  0  0  0  0  0  0  0  0  0
   -3.8291   -5.4258    2.1432 C   0  0  0  0  0  0  0  0  0  0  0  0
   -2.7172   -6.0135    2.0566 O   0  0  0  0  0  0  0  0  0  0  0  0
   -5.0870   -6.2279    2.2930 C   0  0  0  0  0  0  0  0  0  0  0  0
   -6.3554   -5.5448    1.1836 S   0  0  0  0  0  0  0  0  0  0  0  0
   -8.7001    3.0151    3.8041 N   0  0  0  0  0  0  0  0  0  0  0  0
   -8.7457    4.0604    4.6742 C   0  0  0  0  0  0  0  0  0  0  0  0
   -9.7400    5.1681    4.5036 C   0  0  0  0  0  0  0  0  0  0  0  0
  1  3  4  0
  1 14  4  0
  1  2  1  0
  3  4  4  0
  4  5  4  0
  5  6  4  0
  5 22  1  0
  6  7  1  0
  6 14  4  0
  7  8  1  0
  8  9  4  0
  8 12  4  0
  9 10  4  0
 10 11  4  0
 11 12  4  0
 12 13  1  0
 13 14  1  0
 13 15  1  6
 15 16  4  0
 15 20  4  0
 16 17  4  0
 17 18  4  0
 17 21  1  0
 18 19  4  0
 19 20  4  0
 23 24  4  0
 24 25  1  0
 25 26  1  0
 26 27  2  0
 26 28  1  0
 28 29  4  0
 29 30  4  0
 30 31  4  0
 31 32  4  0
 32 33  4  0
 32 34  1  0
 34 35  1  0
 35 36  2  0
 35 37  1  0
 37 38  1  0
 24 39  4  0
 39 40  4  0
 40 41  1  0
 33 28  4  0
 38 31  1  0
  2 23  4  0
  2 40  4  0
M  END
$$$$

     RDKit          3D

 44 51  0  0  0  0  0  0  0  0999 V2000
   -7.6410    4.9930    6.8080 C   0  0  0  0  0  0  0  0  0  1  0  0
   -7.7310    4.0530    5.7140 C   0  0  0  0  0  0  0  0  0  2  0  0
   -6.4520    5.6300    6.8680 N   0  0  0  0  0  0  0  0  0  0  0  0
   -6.2260    6.5240    7.8670 N   0  0  0  0  0  0  0  0  0  0  0  0
   -7.1930    6.7500    8.7820 C   0  0  0  0  0  0  0  0  0  0  0  0
   -8.4240    6.1170    8.7580 C   0  0  0  0  0  0  0  0  0  0  0  0
   -9.3950    6.3570    9.7450 N   0  0  0  0  0  0  0  0  0  0  0  0
  -10.5620    5.6840    9.7600 C   0  0  0  0  0  0  0  0  0  0  0  0
  -11.5770    5.6820   10.5960 N   0  0  0  0  0  0  0  0  0  0  0  0
  -12.4690    4.7490   10.1080 N   0  0  0  0  0  0  0  0  0  0  0  0
  -12.0160    4.1880    8.9920 N   0  0  0  0  0  0  0  0  0  0  0  0
  -10.8400    4.7900    8.7610 N   0  0  0  0  0  0  0  0  0  0  0  0
   -9.9950    4.4790    7.6090 C   0  0  0  0  0  0  0  0  0  0  0  0
   -8.6630    5.2070    7.7200 C   0  0  0  0  0  0  0  0  0  0  0  0
  -10.7490    4.8610    6.3730 C   0  0  0  0  0  0  0  0  0  0  0  0
  -11.0350    6.2020    6.1170 C   0  0  0  0  0  0  0  0  0  0  0  0
  -11.7370    6.5580    4.9650 C   0  0  0  0  0  0  0  0  0  0  0  0
  -12.1550    5.5730    4.0710 C   0  0  0  0  0  0  0  0  0  0  0  0
  -11.8700    4.2310    4.3270 C   0  0  0  0  0  0  0  0  0  0  0  0
  -11.1660    3.8760    5.4790 C   0  0  0  0  0  0  0  0  0  0  0  0
  -12.0160    7.8660    4.7150 O   0  0  0  0  0  0  0  0  0  0  0  0
   -6.8990    7.6510    9.7710 O   0  0  0  0  0  0  0  0  0  0  0  0
   -6.9539    2.9898    5.4241 N   0  0  0  0  0  0  0  0  0  0  0  0
   -7.4627    2.2996    4.4134 N   0  0  0  0  0  0  0  0  0  0  0  0
   -8.6198    2.8980    4.0750 C   0  0  0  0  0  0  0  0  0  0  0  0
   -9.6753    2.3339    2.7362 S   0  0  0  0  0  0  0  0  0  0  0  0
  -10.7667    1.3299    3.8037 C   0  0  0  0  0  0  0  0  0  0  0  0
  -10.2263   -0.0631    3.9530 C   0  0  0  0  0  0  0  0  0  0  0  0
   -9.0740   -0.2296    4.4355 O   0  0  0  0  0  0  0  0  0  0  0  0
  -10.9944   -1.2059    3.5388 N   0  0  0  0  0  0  0  0  0  0  0  0
  -12.3911   -1.3680    3.9891 C   0  0  0  0  0  0  0  0  0  0  0  0
  -13.2893   -1.8675    2.8413 C   0  0  0  0  0  0  0  0  0  0  0  0
  -12.5938   -2.9408    2.0615 C   0  0  0  0  0  0  0  0  0  0  0  0
  -13.1858   -3.7900    1.1910 N   0  0  0  0  0  0  0  0  0  0  0  0
  -12.1872   -4.5551    0.7074 C   0  0  0  0  0  0  0  0  0  0  0  0
  -12.2896   -5.5896   -0.2216 C   0  0  0  0  0  0  0  0  0  0  0  0
  -11.1092   -6.2615   -0.5910 C   0  0  0  0  0  0  0  0  0  0  0  0
   -9.8661   -5.8888   -0.0311 C   0  0  0  0  0  0  0  0  0  0  0  0
   -9.7900   -4.8404    0.9043 C   0  0  0  0  0  0  0  0  0  0  0  0
  -10.9757   -4.1959    1.2514 C   0  0  0  0  0  0  0  0  0  0  0  0
  -11.2283   -3.1532    2.1142 C   0  0  0  0  0  0  0  0  0  0  0  0
  -10.2910   -2.3710    2.9778 C   0  0  0  0  0  0  0  0  0  0  0  0
   -8.8645    3.9753    4.8442 N   0  0  0  0  0  0  0  0  0  0  0  0
   -9.9694    4.9220    4.7177 C   0  0  0  0  0  0  0  0  0  0  0  0
  1  3  4  0
  1 14  4  0
  1  2  1  0
  3  4  4  0
  4  5  4  0
  5  6  4  0
  5 22  1  0
  6  7  1  0
  6 14  4  0
  7  8  1  0
  8  9  4  0
  8 12  4  0
  9 10  4  0
 10 11  4  0
 11 12  4  0
 12 13  1  0
 13 14  1  0
 13 15  1  6
 15 16  4  0
 15 20  4  0
 16 17  4  0
 17 18  4  0
 17 21  1  0
 18 19  4  0
 19 20  4  0
 23 24  4  0
 24 25  4  0
 25 26  1  0
 26 27  1  0
 27 28  1  0
 28 29  2  0
 28 30  1  0
 30 31  1  0
 31 32  1  0
 32 33  1  0
 33 34  4  0
 34 35  4  0
 35 36  4  0
 36 37  4  0
 37 38  4  0
 38 39  4  0
 39 40  4  0
 40 41  4  0
 41 42  1  0
 25 43  4  0
 43 44  1  0
 42 30  1  0
 41 33  4  0
 40 35  4  0
  2 23  4  0
  2 43  4  0
M  END
$$$$

     RDKit          3D

 44 51  0  0  0  0  0  0  0  0999 V2000
   -7.6410    4.9930    6.8080 C   0  0  0  0  0  0  0  0  0  1  0  0
   -7.7310    4.0530    5.7140 C   0  0  0  0  0  0  0  0  0  2  0  0
   -6.4520    5.6300    6.8680 N   0  0  0  0  0  0  0  0  0  0  0  0
   -6.2260    6.5240    7.8670 N   0  0  0  0  0  0  0  0  0  0  0  0
   -7.1930    6.7500    8.7820 C   0  0  0  0  0  0  0  0  0  0  0  0
   -8.4240    6.1170    8.7580 C   0  0  0  0  0  0  0  0  0  0  0  0
   -9.3950    6.3570    9.7450 N   0  0  0  0  0  0  0  0  0  0  0  0
  -10.5620    5.6840    9.7600 C   0  0  0  0  0  0  0  0  0  0  0  0
  -11.5770    5.6820   10.5960 N   0  0  0  0  0  0  0  0  0  0  0  0
  -12.4690    4.7490   10.1080 N   0  0  0  0  0  0  0  0  0  0  0  0
  -12.0160    4.1880    8.9920 N   0  0  0  0  0  0  0  0  0  0  0  0
  -10.8400    4.7900    8.7610 N   0  0  0  0  0  0  0  0  0  0  0  0
   -9.9950    4.4790    7.6090 C   0  0  0  0  0  0  0  0  0  0  0  0
   -8.6630    5.2070    7.7200 C   0  0  0  0  0  0  0  0  0  0  0  0
  -10.7490    4.8610    6.3730 C   0  0  0  0  0  0  0  0  0  0  0  0
  -11.0350    6.2020    6.1170 C   0  0  0  0  0  0  0  0  0  0  0  0
  -11.7370    6.5580    4.9650 C   0  0  0  0  0  0  0  0  0  0  0  0
  -12.1550    5.5730    4.0710 C   0  0  0  0  0  0  0  0  0  0  0  0
  -11.8700    4.2310    4.3270 C   0  0  0  0  0  0  0  0  0  0  0  0
  -11.1660    3.8760    5.4790 C   0  0  0  0  0  0  0  0  0  0  0  0
  -12.0160    7.8660    4.7150 O   0  0  0  0  0  0  0  0  0  0  0  0
   -6.8990    7.6510    9.7710 O   0  0  0  0  0  0  0  0  0  0  0  0
   -6.9721    2.9696    5.4456 N   0  0  0  0  0  0  0  0  0  0  0  0
   -7.4707    2.2928    4.4211 N   0  0  0  0  0  0  0  0  0  0  0  0
   -8.6004    2.9228    4.0491 C   0  0  0  0  0  0  0  0  0  0  0  0
   -9.6393    2.3795    2.6887 S   0  0  0  0  0  0  0  0  0  0  0  0
   -8.7950    3.3909    1.4226 C   0  0  0  0  0  0  0  0  0  0  0  0
   -7.6870    2.6088    0.7796 C   0  0  0  0  0  0  0  0  0  0  0  0
   -6.7506    2.1619    1.4959 O   0  0  0  0  0  0  0  0  0  0  0  0
   -7.6848    2.3520   -0.6351 N   0  0  0  0  0  0  0  0  0  0  0  0
   -7.1785    1.0554   -1.1244 C   0  0  0  0  0  0  0  0  0  0  0  0
   -7.9969    0.5506   -2.3295 C   0  0  0  0  0  0  0  0  0  0  0  0
   -8.3155    1.6747   -3.2650 C   0  0  0  0  0  0  0  0  0  0  0  0
   -8.7768    1.5387   -4.5291 N   0  0  0  0  0  0  0  0  0  0  0  0
   -8.9570    2.7967   -4.9780 C   0  0  0  0  0  0  0  0  0  0  0  0
   -9.4159    3.1876   -6.2351 C   0  0  0  0  0  0  0  0  0  0  0  0
   -9.5308    4.5663   -6.4939 C   0  0  0  0  0  0  0  0  0  0  0  0
   -9.1898    5.5136   -5.5020 C   0  0  0  0  0  0  0  0  0  0  0  0
   -8.7305    5.0923   -4.2406 C   0  0  0  0  0  0  0  0  0  0  0  0
   -8.6264    3.7212   -4.0148 C   0  0  0  0  0  0  0  0  0  0  0  0
   -8.2255    3.0066   -2.9083 C   0  0  0  0  0  0  0  0  0  0  0  0
   -7.7566    3.4866   -1.5735 C   0  0  0  0  0  0  0  0  0  0  0  0
   -8.8438    4.0001    4.8192 N   0  0  0  0  0  0  0  0  0  0  0  0
   -9.9313    4.9655    4.6780 C   0  0  0  0  0  0  0  0  0  0  0  0
  1  3  4  0
  1 14  4  0
  1  2  1  0
  3  4  4  0
  4  5  4  0
  5  6  4  0
  5 22  1  0
  6  7  1  0
  6 14  4  0
  7  8  1  0
  8  9  4  0
  8 12  4  0
  9 10  4  0
 10 11  4  0
 11 12  4  0
 12 13  1  0
 13 14  1  0
 13 15  1  6
 15 16  4  0
 15 20  4  0
 16 17  4  0
 17 18  4  0
 17 21  1  0
 18 19  4  0
 19 20  4  0
 23 24  4  0
 24 25  4  0
 25 26  1  0
 26 27  1  0
 27 28  1  0
 28 29  2  0
 28 30  1  0
 30 31  1  0
 31 32  1  0
 32 33  1  0
 33 34  4  0
 34 35  4  0
 35 36  4  0
 36 37  4  0
 37 38  4  0
 38 39  4  0
 39 40  4  0
 40 41  4  0
 41 42  1  0
 25 43  4  0
 43 44  1  0
 42 30  1  0
 41 33  4  0
 40 35  4  0
  2 23  4  0
  2 43  4  0
M  END
$$$$

     RDKit          3D

 30 34  0  0  0  0  0  0  0  0999 V2000
   -7.6410    4.9930    6.8080 C   0  0  0  0  0  0  0  0  0  1  0  0
   -7.7310    4.0530    5.7140 C   0  0  0  0  0  0  0  0  0  2  0  0
   -6.4520    5.6300    6.8680 N   0  0  0  0  0  0  0  0  0  0  0  0
   -6.2260    6.5240    7.8670 N   0  0  0  0  0  0  0  0  0  0  0  0
   -7.1930    6.7500    8.7820 C   0  0  0  0  0  0  0  0  0  0  0  0
   -8.4240    6.1170    8.7580 C   0  0  0  0  0  0  0  0  0  0  0  0
   -9.3950    6.3570    9.7450 N   0  0  0  0  0  0  0  0  0  0  0  0
  -10.5620    5.6840    9.7600 C   0  0  0  0  0  0  0  0  0  0  0  0
  -11.5770    5.6820   10.5960 N   0  0  0  0  0  0  0  0  0  0  0  0
  -12.4690    4.7490   10.1080 N   0  0  0  0  0  0  0  0  0  0  0  0
  -12.0160    4.1880    8.9920 N   0  0  0  0  0  0  0  0  0  0  0  0
  -10.8400    4.7900    8.7610 N   0  0  0  0  0  0  0  0  0  0  0  0
   -9.9950    4.4790    7.6090 C   0  0  0  0  0  0  0  0  0  0  0  0
   -8.6630    5.2070    7.7200 C   0  0  0  0  0  0  0  0  0  0  0  0
  -10.7490    4.8610    6.3730 C   0  0  0  0  0  0  0  0  0  0  0  0
  -11.0350    6.2020    6.1170 C   0  0  0  0  0  0  0  0  0  0  0  0
  -11.7370    6.5580    4.9650 C   0  0  0  0  0  0  0  0  0  0  0  0
  -12.1550    5.5730    4.0710 C   0  0  0  0  0  0  0  0  0  0  0  0
  -11.8700    4.2310    4.3270 C   0  0  0  0  0  0  0  0  0  0  0  0
  -11.1660    3.8760    5.4790 C   0  0  0  0  0  0  0  0  0  0  0  0
  -12.0160    7.8660    4.7150 O   0  0  0  0  0  0  0  0  0  0  0  0
   -6.8990    7.6510    9.7710 O   0  0  0  0  0  0  0  0  0  0  0  0
   -6.7825    3.2055    5.2692 N   0  0  0  0  0  0  0  0  0  0  0  0
   -7.2501    2.4360    4.3003 N   0  0  0  0  0  0  0  0  0  0  0  0
   -8.5456    2.7243    4.0752 C   0  0  0  0  0  0  0  0  0  0  0  0
   -9.3713    2.0264    3.0734 C   0  0  0  0  0  0  0  0  0  0  0  0
  -10.6032    2.2637    2.9718 O   0  0  0  0  0  0  0  0  0  0  0  0
   -8.7912    1.0800    2.2384 O   0  0  0  0  0  0  0  0  0  0  0  0
   -8.9260    3.7458    4.9347 C   0  0  0  0  0  0  0  0  0  0  0  0
  -10.2542    4.4413    4.9984 C   0  0  0  0  0  0  0  0  0  0  0  0
  1  3  4  0
  1 14  4  0
  1  2  1  0
  3  4  4  0
  4  5  4  0
  5  6  4  0
  5 22  1  0
  6  7  1  0
  6 14  4  0
  7  8  1  0
  8  9  4  0
  8 12  4  0
  9 10  4  0
 10 11  4  0
 11 12  4  0
 12 13  1  0
 13 14  1  0
 13 15  1  6
 15 16  4  0
 15 20  4  0
 16 17  4  0
 17 18  4  0
 17 21  1  0
 18 19  4  0
 19 20  4  0
 23 24  4  0
 24 25  4  0
 25 26  1  0
 26 27  2  0
 26 28  1  0
 25 29  4  0
 29 30  1  0
  2 23  4  0
  2 29  4  0
M  CHG  1  28  -1
M  END
$$$$

     RDKit          3D

 30 34  0  0  0  0  0  0  0  0999 V2000
   -7.6410    4.9930    6.8080 C   0  0  0  0  0  0  0  0  0  1  0  0
   -7.7310    4.0530    5.7140 C   0  0  0  0  0  0  0  0  0  2  0  0
   -6.4520    5.6300    6.8680 N   0  0  0  0  0  0  0  0  0  0  0  0
   -6.2260    6.5240    7.8670 N   0  0  0  0  0  0  0  0  0  0  0  0
   -7.1930    6.7500    8.7820 C   0  0  0  0  0  0  0  0  0  0  0  0
   -8.4240    6.1170    8.7580 C   0  0  0  0  0  0  0  0  0  0  0  0
   -9.3950    6.3570    9.7450 N   0  0  0  0  0  0  0  0  0  0  0  0
  -10.5620    5.6840    9.7600 C   0  0  0  0  0  0  0  0  0  0  0  0
  -11.5770    5.6820   10.5960 N   0  0  0  0  0  0  0  0  0  0  0  0
  -12.4690    4.7490   10.1080 N   0  0  0  0  0  0  0  0  0  0  0  0
  -12.0160    4.1880    8.9920 N   0  0  0  0  0  0  0  0  0  0  0  0
  -10.8400    4.7900    8.7610 N   0  0  0  0  0  0  0  0  0  0  0  0
   -9.9950    4.4790    7.6090 C   0  0  0  0  0  0  0  0  0  0  0  0
   -8.6630    5.2070    7.7200 C   0  0  0  0  0  0  0  0  0  0  0  0
  -10.7490    4.8610    6.3730 C   0  0  0  0  0  0  0  0  0  0  0  0
  -11.0350    6.2020    6.1170 C   0  0  0  0  0  0  0  0  0  0  0  0
  -11.7370    6.5580    4.9650 C   0  0  0  0  0  0  0  0  0  0  0  0
  -12.1550    5.5730    4.0710 C   0  0  0  0  0  0  0  0  0  0  0  0
  -11.8700    4.2310    4.3270 C   0  0  0  0  0  0  0  0  0  0  0  0
  -11.1660    3.8760    5.4790 C   0  0  0  0  0  0  0  0  0  0  0  0
  -12.0160    7.8660    4.7150 O   0  0  0  0  0  0  0  0  0  0  0  0
   -6.8990    7.6510    9.7710 O   0  0  0  0  0  0  0  0  0  0  0  0
   -6.7834    3.2035    5.2710 N   0  0  0  0  0  0  0  0  0  0  0  0
   -7.2512    2.4345    4.3020 N   0  0  0  0  0  0  0  0  0  0  0  0
   -8.5463    2.7251    4.0754 C   0  0  0  0  0  0  0  0  0  0  0  0
   -9.3762    2.0300    3.0746 C   0  0  0  0  0  0  0  0  0  0  0  0
   -8.8527    1.1817    2.3056 O   0  0  0  0  0  0  0  0  0  0  0  0
  -10.7386    2.2820    2.9779 O   0  0  0  0  0  0  0  0  0  0  0  0
   -8.9258    3.7472    4.9337 C   0  0  0  0  0  0  0  0  0  0  0  0
  -10.2501    4.4501    4.9900 C   0  0  0  0  0  0  0  0  0  0  0  0
  1  3  4  0
  1 14  4  0
  1  2  1  0
  3  4  4  0
  4  5  4  0
  5  6  4  0
  5 22  1  0
  6  7  1  0
  6 14  4  0
  7  8  1  0
  8  9  4  0
  8 12  4  0
  9 10  4  0
 10 11  4  0
 11 12  4  0
 12 13  1  0
 13 14  1  0
 13 15  1  6
 15 16  4  0
 15 20  4  0
 16 17  4  0
 17 18  4  0
 17 21  1  0
 18 19  4  0
 19 20  4  0
 23 24  4  0
 24 25  4  0
 25 26  1  0
 26 27  2  0
 26 28  1  0
 25 29  4  0
 29 30  1  0
  2 23  4  0
  2 29  4  0
M  CHG  1  28  -1
M  END
$$$$

     RDKit          3D

 41 48  0  0  0  0  0  0  0  0999 V2000
   -7.6410    4.9930    6.8080 C   0  0  0  0  0  0  0  0  0  1  0  0
   -7.7310    4.0530    5.7140 C   0  0  0  0  0  0  0  0  0  2  0  0
   -6.4520    5.6300    6.8680 N   0  0  0  0  0  0  0  0  0  0  0  0
   -6.2260    6.5240    7.8670 N   0  0  0  0  0  0  0  0  0  0  0  0
   -7.1930    6.7500    8.7820 C   0  0  0  0  0  0  0  0  0  0  0  0
   -8.4240    6.1170    8.7580 C   0  0  0  0  0  0  0  0  0  0  0  0
   -9.3950    6.3570    9.7450 N   0  0  0  0  0  0  0  0  0  0  0  0
  -10.5620    5.6840    9.7600 C   0  0  0  0  0  0  0  0  0  0  0  0
  -11.5770    5.6820   10.5960 N   0  0  0  0  0  0  0  0  0  0  0  0
  -12.4690    4.7490   10.1080 N   0  0  0  0  0  0  0  0  0  0  0  0
  -12.0160    4.1880    8.9920 N   0  0  0  0  0  0  0  0  0  0  0  0
  -10.8400    4.7900    8.7610 N   0  0  0  0  0  0  0  0  0  0  0  0
   -9.9950    4.4790    7.6090 C   0  0  0  0  0  0  0  0  0  0  0  0
   -8.6630    5.2070    7.7200 C   0  0  0  0  0  0  0  0  0  0  0  0
  -10.7490    4.8610    6.3730 C   0  0  0  0  0  0  0  0  0  0  0  0
  -11.0350    6.2020    6.1170 C   0  0  0  0  0  0  0  0  0  0  0  0
  -11.7370    6.5580    4.9650 C   0  0  0  0  0  0  0  0  0  0  0  0
  -12.1550    5.5730    4.0710 C   0  0  0  0  0  0  0  0  0  0  0  0
  -11.8700    4.2310    4.3270 C   0  0  0  0  0  0  0  0  0  0  0  0
  -11.1660    3.8760    5.4790 C   0  0  0  0  0  0  0  0  0  0  0  0
  -12.0160    7.8660    4.7150 O   0  0  0  0  0  0  0  0  0  0  0  0
   -6.8990    7.6510    9.7710 O   0  0  0  0  0  0  0  0  0  0  0  0
   -6.7743    3.3024    5.1666 N   0  0  0  0  0  0  0  0  0  0  0  0
   -7.2687    2.5296    4.2127 N   0  0  0  0  0  0  0  0  0  0  0  0
   -6.4620    1.6305    3.4327 C   0  0  0  0  0  0  0  0  0  0  0  0
   -6.9435    0.3580    3.0700 C   0  0  0  0  0  0  0  0  0  0  0  0
   -6.1456   -0.5147    2.3227 C   0  0  0  0  0  0  0  0  0  0  0  0
   -4.8591   -0.1277    1.9418 C   0  0  0  0  0  0  0  0  0  0  0  0
   -4.3546    1.1174    2.3377 C   0  0  0  0  0  0  0  0  0  0  0  0
   -5.1540    1.9975    3.0724 C   0  0  0  0  0  0  0  0  0  0  0  0
   -3.0453    1.4626    1.9876 O   0  0  0  0  0  0  0  0  0  0  0  0
   -2.1323    0.4823    1.4875 C   0  0  0  0  0  0  0  0  0  0  0  0
   -2.8586   -0.4927    0.5515 C   0  0  0  0  0  0  0  0  0  0  0  0
   -4.0570   -0.9721    1.1673 O   0  0  0  0  0  0  0  0  0  0  0  0
   -8.5985    2.7433    4.1171 C   0  0  0  0  0  0  0  0  0  0  0  0
   -8.9820    3.6871    5.0528 C   0  0  0  0  0  0  0  0  0  0  0  0
  -10.2608    4.4809    5.0250 C   0  0  0  0  0  0  0  0  0  0  0  0
  -11.5048    3.5866    4.9859 C   0  0  0  0  0  0  0  0  0  0  0  0
  -11.7358    2.9415    3.6108 C   0  0  0  0  0  0  0  0  0  0  0  0
  -10.7914    1.7684    3.3368 C   0  0  0  0  0  0  0  0  0  0  0  0
   -9.4299    2.2235    3.0733 N   0  0  0  0  0  0  0  0  0  0  0  0
  1  3  4  0
  1 14  4  0
  1  2  1  0
  3  4  4  0
  4  5  4  0
  5  6  4  0
  5 22  1  0
  6  7  1  0
  6 14  4  0
  7  8  1  0
  8  9  4  0
  8 12  4  0
  9 10  4  0
 10 11  4  0
 11 12  4  0
 12 13  1  0
 13 14  1  0
 13 15  1  6
 15 16  4  0
 15 20  4  0
 16 17  4  0
 17 18  4  0
 17 21  1  0
 18 19  4  0
 19 20  4  0
 23 24  4  0
 24 25  1  0
 25 26  4  0
 26 27  4  0
 27 28  4  0
 28 29  4  0
 29 30  4  0
 29 31  1  0
 31 32  1  0
 32 33  1  0
 33 34  1  0
 24 35  4  0
 35 36  4  0
 36 37  1  0
 37 38  1  0
 38 39  1  0
 39 40  1  0
 40 41  1  0
 30 25  4  0
 41 35  1  0
 34 28  1  0
  2 23  4  0
  2 36  4  0
M  END
$$$$

     RDKit          3D

 41 48  0  0  0  0  0  0  0  0999 V2000
   -7.6410    4.9930    6.8080 C   0  0  0  0  0  0  0  0  0  1  0  0
   -7.7310    4.0530    5.7140 C   0  0  0  0  0  0  0  0  0  2  0  0
   -6.4520    5.6300    6.8680 N   0  0  0  0  0  0  0  0  0  0  0  0
   -6.2260    6.5240    7.8670 N   0  0  0  0  0  0  0  0  0  0  0  0
   -7.1930    6.7500    8.7820 C   0  0  0  0  0  0  0  0  0  0  0  0
   -8.4240    6.1170    8.7580 C   0  0  0  0  0  0  0  0  0  0  0  0
   -9.3950    6.3570    9.7450 N   0  0  0  0  0  0  0  0  0  0  0  0
  -10.5620    5.6840    9.7600 C   0  0  0  0  0  0  0  0  0  0  0  0
  -11.5770    5.6820   10.5960 N   0  0  0  0  0  0  0  0  0  0  0  0
  -12.4690    4.7490   10.1080 N   0  0  0  0  0  0  0  0  0  0  0  0
  -12.0160    4.1880    8.9920 N   0  0  0  0  0  0  0  0  0  0  0  0
  -10.8400    4.7900    8.7610 N   0  0  0  0  0  0  0  0  0  0  0  0
   -9.9950    4.4790    7.6090 C   0  0  0  0  0  0  0  0  0  0  0  0
   -8.6630    5.2070    7.7200 C   0  0  0  0  0  0  0  0  0  0  0  0
  -10.7490    4.8610    6.3730 C   0  0  0  0  0  0  0  0  0  0  0  0
  -11.0350    6.2020    6.1170 C   0  0  0  0  0  0  0  0  0  0  0  0
  -11.7370    6.5580    4.9650 C   0  0  0  0  0  0  0  0  0  0  0  0
  -12.1550    5.5730    4.0710 C   0  0  0  0  0  0  0  0  0  0  0  0
  -11.8700    4.2310    4.3270 C   0  0  0  0  0  0  0  0  0  0  0  0
  -11.1660    3.8760    5.4790 C   0  0  0  0  0  0  0  0  0  0  0  0
  -12.0160    7.8660    4.7150 O   0  0  0  0  0  0  0  0  0  0  0  0
   -6.8990    7.6510    9.7710 O   0  0  0  0  0  0  0  0  0  0  0  0
   -6.7747    3.3115    5.1532 N   0  0  0  0  0  0  0  0  0  0  0  0
   -7.2803    2.4930    4.2429 N   0  0  0  0  0  0  0  0  0  0  0  0
   -6.4705    1.6019    3.4604 C   0  0  0  0  0  0  0  0  0  0  0  0
   -6.6544    1.4978    2.0696 C   0  0  0  0  0  0  0  0  0  0  0  0
   -5.8379    0.6540    1.3091 C   0  0  0  0  0  0  0  0  0  0  0  0
   -4.8223   -0.0765    1.9305 C   0  0  0  0  0  0  0  0  0  0  0  0
   -4.6377    0.0160    3.3161 C   0  0  0  0  0  0  0  0  0  0  0  0
   -5.4425    0.8692    4.0762 C   0  0  0  0  0  0  0  0  0  0  0  0
   -3.6398   -0.7544    3.9216 O   0  0  0  0  0  0  0  0  0  0  0  0
   -3.0048   -1.8245    3.2173 C   0  0  0  0  0  0  0  0  0  0  0  0
   -2.7745   -1.4340    1.7514 C   0  0  0  0  0  0  0  0  0  0  0  0
   -3.9748   -0.9020    1.1845 O   0  0  0  0  0  0  0  0  0  0  0  0
   -8.6213    2.6538    4.1946 C   0  0  0  0  0  0  0  0  0  0  0  0
   -8.9885    3.6273    5.1064 C   0  0  0  0  0  0  0  0  0  0  0  0
  -10.3538    4.2400    5.2350 C   0  0  0  0  0  0  0  0  0  0  0  0
  -11.4035    3.2446    5.7550 C   0  0  0  0  0  0  0  0  0  0  0  0
  -11.3958    1.8535    5.0818 C   0  0  0  0  0  0  0  0  0  0  0  0
  -10.9799    1.8708    3.6007 C   0  0  0  0  0  0  0  0  0  0  0  0
   -9.5231    1.8033    3.4632 N   0  0  0  0  0  0  0  0  0  0  0  0
  1  3  4  0
  1 14  4  0
  1  2  1  0
  3  4  4  0
  4  5  4  0
  5  6  4  0
  5 22  1  0
  6  7  1  0
  6 14  4  0
  7  8  1  0
  8  9  4  0
  8 12  4  0
  9 10  4  0
 10 11  4  0
 11 12  4  0
 12 13  1  0
 13 14  1  0
 13 15  1  6
 15 16  4  0
 15 20  4  0
 16 17  4  0
 17 18  4  0
 17 21  1  0
 18 19  4  0
 19 20  4  0
 23 24  4  0
 24 25  1  0
 25 26  4  0
 26 27  4  0
 27 28  4  0
 28 29  4  0
 29 30  4  0
 29 31  1  0
 31 32  1  0
 32 33  1  0
 33 34  1  0
 24 35  4  0
 35 36  4  0
 36 37  1  0
 37 38  1  0
 38 39  1  0
 39 40  1  0
 40 41  1  0
 30 25  4  0
 41 35  1  0
 34 28  1  0
  2 23  4  0
  2 36  4  0
M  END
$$$$

     RDKit          3D

 49 56  0  0  0  0  0  0  0  0999 V2000
   -7.6410    4.9930    6.8080 C   0  0  0  0  0  0  0  0  0  1  0  0
   -7.7310    4.0530    5.7140 C   0  0  0  0  0  0  0  0  0  2  0  0
   -6.4520    5.6300    6.8680 N   0  0  0  0  0  0  0  0  0  0  0  0
   -6.2260    6.5240    7.8670 N   0  0  0  0  0  0  0  0  0  0  0  0
   -7.1930    6.7500    8.7820 C   0  0  0  0  0  0  0  0  0  0  0  0
   -8.4240    6.1170    8.7580 C   0  0  0  0  0  0  0  0  0  0  0  0
   -9.3950    6.3570    9.7450 N   0  0  0  0  0  0  0  0  0  0  0  0
  -10.5620    5.6840    9.7600 C   0  0  0  0  0  0  0  0  0  0  0  0
  -11.5770    5.6820   10.5960 N   0  0  0  0  0  0  0  0  0  0  0  0
  -12.4690    4.7490   10.1080 N   0  0  0  0  0  0  0  0  0  0  0  0
  -12.0160    4.1880    8.9920 N   0  0  0  0  0  0  0  0  0  0  0  0
  -10.8400    4.7900    8.7610 N   0  0  0  0  0  0  0  0  0  0  0  0
   -9.9950    4.4790    7.6090 C   0  0  0  0  0  0  0  0  0  0  0  0
   -8.6630    5.2070    7.7200 C   0  0  0  0  0  0  0  0  0  0  0  0
  -10.7490    4.8610    6.3730 C   0  0  0  0  0  0  0  0  0  0  0  0
  -11.0350    6.2020    6.1170 C   0  0  0  0  0  0  0  0  0  0  0  0
  -11.7370    6.5580    4.9650 C   0  0  0  0  0  0  0  0  0  0  0  0
  -12.1550    5.5730    4.0710 C   0  0  0  0  0  0  0  0  0  0  0  0
  -11.8700    4.2310    4.3270 C   0  0  0  0  0  0  0  0  0  0  0  0
  -11.1660    3.8760    5.4790 C   0  0  0  0  0  0  0  0  0  0  0  0
  -12.0160    7.8660    4.7150 O   0  0  0  0  0  0  0  0  0  0  0  0
   -6.8990    7.6510    9.7710 O   0  0  0  0  0  0  0  0  0  0  0  0
   -6.9807    2.9323    5.5565 N   0  0  0  0  0  0  0  0  0  0  0  0
   -7.3548    2.2813    4.4636 N   0  0  0  0  0  0  0  0  0  0  0  0
   -6.7189    1.0669    4.0080 C   0  0  0  0  0  0  0  0  0  0  0  0
   -5.7513    0.4363    4.8157 C   0  0  0  0  0  0  0  0  0  0  0  0
   -5.1223   -0.7378    4.3896 C   0  0  0  0  0  0  0  0  0  0  0  0
   -5.4474   -1.2972    3.1524 C   0  0  0  0  0  0  0  0  0  0  0  0
   -6.4026   -0.6842    2.3393 C   0  0  0  0  0  0  0  0  0  0  0  0
   -7.0360    0.4904    2.7595 C   0  0  0  0  0  0  0  0  0  0  0  0
   -8.3834    2.9384    3.8811 C   0  0  0  0  0  0  0  0  0  0  0  0
   -8.6750    4.0583    4.6360 C   0  0  0  0  0  0  0  0  0  0  0  0
   -9.6693    5.1037    4.3191 C   0  0  0  0  0  0  0  0  0  0  0  0
   -9.6379    6.2014    4.9380 O   0  0  0  0  0  0  0  0  0  0  0  0
  -10.6844    4.8630    3.3308 N   0  0  0  0  0  0  0  0  0  0  0  0
  -11.4615    5.9030    2.7123 C   0  0  0  0  0  0  0  0  0  0  0  0
  -12.7728    5.6285    2.2977 C   0  0  0  0  0  0  0  0  0  0  0  0
  -13.5397    6.6154    1.6720 C   0  0  0  0  0  0  0  0  0  0  0  0
  -13.0103    7.8949    1.4505 C   0  0  0  0  0  0  0  0  0  0  0  0
  -13.8111    8.8824    0.7797 N   0  0  0  0  0  0  0  0  0  0  0  0
  -13.7377   10.2949    1.0377 C   0  0  0  0  0  0  0  0  0  0  0  0
  -13.0920   10.7333    2.0286 O   0  0  0  0  0  0  0  0  0  0  0  0
  -14.4599   11.2646    0.1438 C   0  0  0  0  0  0  0  0  0  0  0  0
  -13.8472   11.3065   -1.2474 C   0  0  0  0  0  0  0  0  0  0  0  0
  -15.0320   11.5896   -2.1180 C   0  0  0  0  0  0  0  0  0  0  0  0
  -16.1902   11.0241   -1.3176 C   0  0  0  0  0  0  0  0  0  0  0  0
  -15.8189   10.9031    0.0388 O   0  0  0  0  0  0  0  0  0  0  0  0
  -11.6806    8.1579    1.8240 C   0  0  0  0  0  0  0  0  0  0  0  0
  -10.9134    7.1710    2.4508 C   0  0  0  0  0  0  0  0  0  0  0  0
  1  3  4  0
  1 14  4  0
  1  2  1  0
  3  4  4  0
  4  5  4  0
  5  6  4  0
  5 22  1  0
  6  7  1  0
  6 14  4  0
  7  8  1  0
  8  9  4  0
  8 12  4  0
  9 10  4  0
 10 11  4  0
 11 12  4  0
 12 13  1  0
 13 14  1  0
 13 15  1  6
 15 16  4  0
 15 20  4  0
 16 17  4  0
 17 18  4  0
 17 21  1  0
 18 19  4  0
 19 20  4  0
 23 24  4  0
 24 25  1  0
 25 26  4  0
 26 27  4  0
 27 28  4  0
 28 29  4  0
 29 30  4  0
 24 31  4  0
 31 32  4  0
 32 33  1  0
 33 34  2  0
 33 35  1  0
 35 36  1  0
 36 37  4  0
 37 38  4  0
 38 39  4  0
 39 40  1  0
 40 41  1  0
 41 42  2  0
 41 43  1  0
 43 44  1  0
 44 45  1  0
 45 46  1  0
 46 47  1  0
 39 48  4  0
 48 49  4  0
 49 36  4  0
 30 25  4  0
 47 43  1  0
  2 23  4  0
  2 32  4  0
M  END
$$$$

     RDKit          3D

 34 38  0  0  0  0  0  0  0  0999 V2000
   -7.6410    4.9930    6.8080 C   0  0  0  0  0  0  0  0  0  1  0  0
   -7.7310    4.0530    5.7140 C   0  0  0  0  0  0  0  0  0  2  0  0
   -6.4520    5.6300    6.8680 N   0  0  0  0  0  0  0  0  0  0  0  0
   -6.2260    6.5240    7.8670 N   0  0  0  0  0  0  0  0  0  0  0  0
   -7.1930    6.7500    8.7820 C   0  0  0  0  0  0  0  0  0  0  0  0
   -8.4240    6.1170    8.7580 C   0  0  0  0  0  0  0  0  0  0  0  0
   -9.3950    6.3570    9.7450 N   0  0  0  0  0  0  0  0  0  0  0  0
  -10.5620    5.6840    9.7600 C   0  0  0  0  0  0  0  0  0  0  0  0
  -11.5770    5.6820   10.5960 N   0  0  0  0  0  0  0  0  0  0  0  0
  -12.4690    4.7490   10.1080 N   0  0  0  0  0  0  0  0  0  0  0  0
  -12.0160    4.1880    8.9920 N   0  0  0  0  0  0  0  0  0  0  0  0
  -10.8400    4.7900    8.7610 N   0  0  0  0  0  0  0  0  0  0  0  0
   -9.9950    4.4790    7.6090 C   0  0  0  0  0  0  0  0  0  0  0  0
   -8.6630    5.2070    7.7200 C   0  0  0  0  0  0  0  0  0  0  0  0
  -10.7490    4.8610    6.3730 C   0  0  0  0  0  0  0  0  0  0  0  0
  -11.0350    6.2020    6.1170 C   0  0  0  0  0  0  0  0  0  0  0  0
  -11.7370    6.5580    4.9650 C   0  0  0  0  0  0  0  0  0  0  0  0
  -12.1550    5.5730    4.0710 C   0  0  0  0  0  0  0  0  0  0  0  0
  -11.8700    4.2310    4.3270 C   0  0  0  0  0  0  0  0  0  0  0  0
  -11.1660    3.8760    5.4790 C   0  0  0  0  0  0  0  0  0  0  0  0
  -12.0160    7.8660    4.7150 O   0  0  0  0  0  0  0  0  0  0  0  0
   -6.8990    7.6510    9.7710 O   0  0  0  0  0  0  0  0  0  0  0  0
   -6.8235    2.9961    5.5086 C   0  0  0  0  0  0  0  0  0  0  0  0
   -6.9594    2.0557    4.4853 C   0  0  0  0  0  0  0  0  0  0  0  0
   -5.7524    0.7995    4.2809 Cl  0  0  0  0  0  0  0  0  0  0  0  0
   -8.0580    2.1135    3.6288 C   0  0  0  0  0  0  0  0  0  0  0  0
   -9.0198    3.1131    3.7867 C   0  0  0  0  0  0  0  0  0  0  0  0
   -8.8948    4.0741    4.8110 C   0  0  0  0  0  0  0  0  0  0  0  0
   -9.8251    5.1172    4.9963 O   0  0  0  0  0  0  0  0  0  0  0  0
  -10.9423    5.4648    4.1695 C   0  0  0  0  0  0  0  0  0  0  0  0
  -10.4816    5.9971    2.8055 C   0  0  0  0  0  0  0  0  0  0  0  0
  -11.9445    4.3433    4.0896 C   0  0  0  0  0  0  0  0  0  0  0  0
  -12.4420    3.9904    2.9868 O   0  0  0  0  0  0  0  0  0  0  0  0
  -12.3494    3.7047    5.2545 O   0  0  0  0  0  0  0  0  0  0  0  0
  1  3  4  0
  1 14  4  0
  1  2  1  0
  3  4  4  0
  4  5  4  0
  5  6  4  0
  5 22  1  0
  6  7  1  0
  6 14  4  0
  7  8  1  0
  8  9  4  0
  8 12  4  0
  9 10  4  0
 10 11  4  0
 11 12  4  0
 12 13  1  0
 13 14  1  0
 13 15  1  6
 15 16  4  0
 15 20  4  0
 16 17  4  0
 17 18  4  0
 17 21  1  0
 18 19  4  0
 19 20  4  0
 23 24  4  0
 24 25  1  0
 24 26  4  0
 26 27  4  0
 27 28  4  0
 28 29  1  0
 29 30  1  0
 30 31  1  0
 30 32  1  0
 32 33  2  0
 32 34  1  0
  2 23  4  0
  2 28  4  0
M  CHG  1  34  -1
M  END
$$$$

     RDKit          3D

 42 48  0  0  0  0  0  0  0  0999 V2000
   -7.6410    4.9930    6.8080 C   0  0  0  0  0  0  0  0  0  1  0  0
   -7.7310    4.0530    5.7140 C   0  0  0  0  0  0  0  0  0  2  0  0
   -6.4520    5.6300    6.8680 N   0  0  0  0  0  0  0  0  0  0  0  0
   -6.2260    6.5240    7.8670 N   0  0  0  0  0  0  0  0  0  0  0  0
   -7.1930    6.7500    8.7820 C   0  0  0  0  0  0  0  0  0  0  0  0
   -8.4240    6.1170    8.7580 C   0  0  0  0  0  0  0  0  0  0  0  0
   -9.3950    6.3570    9.7450 N   0  0  0  0  0  0  0  0  0  0  0  0
  -10.5620    5.6840    9.7600 C   0  0  0  0  0  0  0  0  0  0  0  0
  -11.5770    5.6820   10.5960 N   0  0  0  0  0  0  0  0  0  0  0  0
  -12.4690    4.7490   10.1080 N   0  0  0  0  0  0  0  0  0  0  0  0
  -12.0160    4.1880    8.9920 N   0  0  0  0  0  0  0  0  0  0  0  0
  -10.8400    4.7900    8.7610 N   0  0  0  0  0  0  0  0  0  0  0  0
   -9.9950    4.4790    7.6090 C   0  0  0  0  0  0  0  0  0  0  0  0
   -8.6630    5.2070    7.7200 C   0  0  0  0  0  0  0  0  0  0  0  0
  -10.7490    4.8610    6.3730 C   0  0  0  0  0  0  0  0  0  0  0  0
  -11.0350    6.2020    6.1170 C   0  0  0  0  0  0  0  0  0  0  0  0
  -11.7370    6.5580    4.9650 C   0  0  0  0  0  0  0  0  0  0  0  0
  -12.1550    5.5730    4.0710 C   0  0  0  0  0  0  0  0  0  0  0  0
  -11.8700    4.2310    4.3270 C   0  0  0  0  0  0  0  0  0  0  0  0
  -11.1660    3.8760    5.4790 C   0  0  0  0  0  0  0  0  0  0  0  0
  -12.0160    7.8660    4.7150 O   0  0  0  0  0  0  0  0  0  0  0  0
   -6.8990    7.6510    9.7710 O   0  0  0  0  0  0  0  0  0  0  0  0
   -6.7961    3.1528    5.3484 N   0  0  0  0  0  0  0  0  0  0  0  0
   -7.3027    2.4195    4.3398 C   0  0  0  0  0  0  0  0  0  0  0  0
   -6.5032    1.4029    3.6237 C   0  0  0  0  0  0  0  0  0  0  0  0
   -6.9356    0.8900    2.5567 O   0  0  0  0  0  0  0  0  0  0  0  0
   -5.2326    0.9935    4.1552 N   0  0  0  0  0  0  0  0  0  0  0  0
   -4.2258    0.2992    3.3980 C   0  0  0  0  0  0  0  0  0  0  0  0
   -3.3463   -0.5694    4.0605 C   0  0  0  0  0  0  0  0  0  0  0  0
   -2.3337   -1.2372    3.3567 C   0  0  0  0  0  0  0  0  0  0  0  0
   -1.3748   -2.1359    4.0805 C   0  0  0  0  0  0  0  0  0  0  0  0
   -2.1800   -1.0066    1.9830 C   0  0  0  0  0  0  0  0  0  0  0  0
   -3.0504   -0.1396    1.3069 C   0  0  0  0  0  0  0  0  0  0  0  0
   -2.8605    0.1323   -0.1562 C   0  0  0  0  0  0  0  0  0  0  0  0
   -4.0556    0.5286    2.0213 C   0  0  0  0  0  0  0  0  0  0  0  0
   -8.6070    2.8281    4.0835 C   0  0  0  0  0  0  0  0  0  0  0  0
   -8.8894    3.8661    4.9122 N   0  0  0  0  0  0  0  0  0  0  0  0
  -10.0894    4.7196    4.9385 C   0  0  0  0  0  0  0  0  0  0  0  0
  -10.6407    4.9760    3.5312 C   0  0  0  0  0  0  0  0  0  0  0  0
  -11.5374    3.8370    3.0246 C   0  0  0  0  0  0  0  0  0  0  0  0
  -11.0061    2.4298    3.3328 C   0  0  0  0  0  0  0  0  0  0  0  0
   -9.5171    2.2662    3.0111 C   0  0  0  0  0  0  0  0  0  0  0  0
  1  3  4  0
  1 14  4  0
  1  2  1  0
  3  4  4  0
  4  5  4  0
  5  6  4  0
  5 22  1  0
  6  7  1  0
  6 14  4  0
  7  8  1  0
  8  9  4  0
  8 12  4  0
  9 10  4  0
 10 11  4  0
 11 12  4  0
 12 13  1  0
 13 14  1  0
 13 15  1  6
 15 16  4  0
 15 20  4  0
 16 17  4  0
 17 18  4  0
 17 21  1  0
 18 19  4  0
 19 20  4  0
 23 24  4  0
 24 25  1  0
 25 26  2  0
 25 27  1  0
 27 28  1  0
 28 29  4  0
 29 30  4  0
 30 31  1  0
 30 32  4  0
 32 33  4  0
 33 34  1  0
 33 35  4  0
 24 36  4  0
 36 37  4  0
 37 38  1  0
 38 39  1  0
 39 40  1  0
 40 41  1  0
 41 42  1  0
 35 28  4  0
 42 36  1  0
  2 23  4  0
  2 37  4  0
M  END
$$$$

     RDKit          3D

 42 48  0  0  0  0  0  0  0  0999 V2000
   -7.6410    4.9930    6.8080 C   0  0  0  0  0  0  0  0  0  1  0  0
   -7.7310    4.0530    5.7140 C   0  0  0  0  0  0  0  0  0  2  0  0
   -6.4520    5.6300    6.8680 N   0  0  0  0  0  0  0  0  0  0  0  0
   -6.2260    6.5240    7.8670 N   0  0  0  0  0  0  0  0  0  0  0  0
   -7.1930    6.7500    8.7820 C   0  0  0  0  0  0  0  0  0  0  0  0
   -8.4240    6.1170    8.7580 C   0  0  0  0  0  0  0  0  0  0  0  0
   -9.3950    6.3570    9.7450 N   0  0  0  0  0  0  0  0  0  0  0  0
  -10.5620    5.6840    9.7600 C   0  0  0  0  0  0  0  0  0  0  0  0
  -11.5770    5.6820   10.5960 N   0  0  0  0  0  0  0  0  0  0  0  0
  -12.4690    4.7490   10.1080 N   0  0  0  0  0  0  0  0  0  0  0  0
  -12.0160    4.1880    8.9920 N   0  0  0  0  0  0  0  0  0  0  0  0
  -10.8400    4.7900    8.7610 N   0  0  0  0  0  0  0  0  0  0  0  0
   -9.9950    4.4790    7.6090 C   0  0  0  0  0  0  0  0  0  0  0  0
   -8.6630    5.2070    7.7200 C   0  0  0  0  0  0  0  0  0  0  0  0
  -10.7490    4.8610    6.3730 C   0  0  0  0  0  0  0  0  0  0  0  0
  -11.0350    6.2020    6.1170 C   0  0  0  0  0  0  0  0  0  0  0  0
  -11.7370    6.5580    4.9650 C   0  0  0  0  0  0  0  0  0  0  0  0
  -12.1550    5.5730    4.0710 C   0  0  0  0  0  0  0  0  0  0  0  0
  -11.8700    4.2310    4.3270 C   0  0  0  0  0  0  0  0  0  0  0  0
  -11.1660    3.8760    5.4790 C   0  0  0  0  0  0  0  0  0  0  0  0
  -12.0160    7.8660    4.7150 O   0  0  0  0  0  0  0  0  0  0  0  0
   -6.8990    7.6510    9.7710 O   0  0  0  0  0  0  0  0  0  0  0  0
   -6.8191    3.1105    5.3881 N   0  0  0  0  0  0  0  0  0  0  0  0
   -7.3168    2.4047    4.3555 C   0  0  0  0  0  0  0  0  0  0  0  0
   -6.5652    1.3155    3.7082 C   0  0  0  0  0  0  0  0  0  0  0  0
   -5.7302    0.6628    4.3907 O   0  0  0  0  0  0  0  0  0  0  0  0
   -6.6983    1.0613    2.3022 N   0  0  0  0  0  0  0  0  0  0  0  0
   -6.3533   -0.1870    1.6772 C   0  0  0  0  0  0  0  0  0  0  0  0
   -6.4629   -1.4065    2.3684 C   0  0  0  0  0  0  0  0  0  0  0  0
   -6.1442   -2.6164    1.7339 C   0  0  0  0  0  0  0  0  0  0  0  0
   -6.3070   -3.9166    2.4645 C   0  0  0  0  0  0  0  0  0  0  0  0
   -5.7504   -2.6094    0.3881 C   0  0  0  0  0  0  0  0  0  0  0  0
   -5.6384   -1.3998   -0.3125 C   0  0  0  0  0  0  0  0  0  0  0  0
   -5.2527   -1.3995   -1.7624 C   0  0  0  0  0  0  0  0  0  0  0  0
   -5.9600   -0.1958    0.3309 C   0  0  0  0  0  0  0  0  0  0  0  0
   -8.5875    2.8722    4.0522 C   0  0  0  0  0  0  0  0  0  0  0  0
   -8.8669    3.9084    4.8753 N   0  0  0  0  0  0  0  0  0  0  0  0
  -10.0804    4.7492    4.9217 C   0  0  0  0  0  0  0  0  0  0  0  0
  -10.8264    4.9124    3.5752 C   0  0  0  0  0  0  0  0  0  0  0  0
   -9.9250    4.8077    2.3349 C   0  0  0  0  0  0  0  0  0  0  0  0
   -9.7241    3.3518    1.8679 C   0  0  0  0  0  0  0  0  0  0  0  0
   -9.5357    2.3458    3.0136 C   0  0  0  0  0  0  0  0  0  0  0  0
  1  3  4  0
  1 14  4  0
  1  2  1  0
  3  4  4  0
  4  5  4  0
  5  6  4  0
  5 22  1  0
  6  7  1  0
  6 14  4  0
  7  8  1  0
  8  9  4  0
  8 12  4  0
  9 10  4  0
 10 11  4  0
 11 12  4  0
 12 13  1  0
 13 14  1  0
 13 15  1  6
 15 16  4  0
 15 20  4  0
 16 17  4  0
 17 18  4  0
 17 21  1  0
 18 19  4  0
 19 20  4  0
 23 24  4  0
 24 25  1  0
 25 26  2  0
 25 27  1  0
 27 28  1  0
 28 29  4  0
 29 30  4  0
 30 31  1  0
 30 32  4  0
 32 33  4  0
 33 34  1  0
 33 35  4  0
 24 36  4  0
 36 37  4  0
 37 38  1  0
 38 39  1  0
 39 40  1  0
 40 41  1  0
 41 42  1  0
 35 28  4  0
 42 36  1  0
  2 23  4  0
  2 37  4  0
M  END
$$$$

     RDKit          3D

 42 47  0  0  0  0  0  0  0  0999 V2000
   -7.6410    4.9930    6.8080 C   0  0  0  0  0  0  0  0  0  1  0  0
   -7.7310    4.0530    5.7140 C   0  0  0  0  0  0  0  0  0  2  0  0
   -6.4520    5.6300    6.8680 N   0  0  0  0  0  0  0  0  0  0  0  0
   -6.2260    6.5240    7.8670 N   0  0  0  0  0  0  0  0  0  0  0  0
   -7.1930    6.7500    8.7820 C   0  0  0  0  0  0  0  0  0  0  0  0
   -8.4240    6.1170    8.7580 C   0  0  0  0  0  0  0  0  0  0  0  0
   -9.3950    6.3570    9.7450 N   0  0  0  0  0  0  0  0  0  0  0  0
  -10.5620    5.6840    9.7600 C   0  0  0  0  0  0  0  0  0  0  0  0
  -11.5770    5.6820   10.5960 N   0  0  0  0  0  0  0  0  0  0  0  0
  -12.4690    4.7490   10.1080 N   0  0  0  0  0  0  0  0  0  0  0  0
  -12.0160    4.1880    8.9920 N   0  0  0  0  0  0  0  0  0  0  0  0
  -10.8400    4.7900    8.7610 N   0  0  0  0  0  0  0  0  0  0  0  0
   -9.9950    4.4790    7.6090 C   0  0  0  0  0  0  0  0  0  0  0  0
   -8.6630    5.2070    7.7200 C   0  0  0  0  0  0  0  0  0  0  0  0
  -10.7490    4.8610    6.3730 C   0  0  0  0  0  0  0  0  0  0  0  0
  -11.0350    6.2020    6.1170 C   0  0  0  0  0  0  0  0  0  0  0  0
  -11.7370    6.5580    4.9650 C   0  0  0  0  0  0  0  0  0  0  0  0
  -12.1550    5.5730    4.0710 C   0  0  0  0  0  0  0  0  0  0  0  0
  -11.8700    4.2310    4.3270 C   0  0  0  0  0  0  0  0  0  0  0  0
  -11.1660    3.8760    5.4790 C   0  0  0  0  0  0  0  0  0  0  0  0
  -12.0160    7.8660    4.7150 O   0  0  0  0  0  0  0  0  0  0  0  0
   -6.8990    7.6510    9.7710 O   0  0  0  0  0  0  0  0  0  0  0  0
   -6.7949    3.0587    5.3669 C   0  0  0  0  0  0  0  0  0  0  0  0
   -7.1522    2.1994    4.3338 C   0  0  0  0  0  0  0  0  0  0  0  0
   -6.3301    1.0877    3.8215 C   0  0  0  0  0  0  0  0  0  0  0  0
   -5.1774    0.9047    4.2976 O   0  0  0  0  0  0  0  0  0  0  0  0
   -6.8287    0.2122    2.7983 N   0  0  0  0  0  0  0  0  0  0  0  0
   -6.0706   -0.8855    2.3427 N   0  0  0  0  0  0  0  0  0  0  0  0
   -6.5669   -1.8222    1.3717 C   0  0  0  0  0  0  0  0  0  0  0  0
   -8.1814   -1.9190    1.0614 S   0  0  0  0  0  0  0  0  0  0  0  0
   -5.6465   -2.7593    0.7830 N   0  0  0  0  0  0  0  0  0  0  0  0
   -5.9290   -3.5753   -0.4019 C   0  0  0  0  0  0  0  0  0  0  0  0
   -5.8595   -5.0685   -0.0583 C   0  0  0  0  0  0  0  0  0  0  0  0
   -6.9071   -5.4659    0.9502 C   0  0  0  0  0  0  0  0  0  0  0  0
   -8.2672   -5.4549    0.5987 C   0  0  0  0  0  0  0  0  0  0  0  0
   -9.2387   -5.8416    1.5299 C   0  0  0  0  0  0  0  0  0  0  0  0
   -8.8592   -6.2468    2.8125 C   0  0  0  0  0  0  0  0  0  0  0  0
   -7.5091   -6.2614    3.1696 C   0  0  0  0  0  0  0  0  0  0  0  0
   -6.5357   -5.8712    2.2451 C   0  0  0  0  0  0  0  0  0  0  0  0
   -8.6919    2.6224    3.8007 S   0  0  0  0  0  0  0  0  0  0  0  0
   -8.9180    3.9004    4.8674 C   0  0  0  0  0  0  0  0  0  0  0  0
  -10.1538    4.7400    4.9119 C   0  0  0  0  0  0  0  0  0  0  0  0
  1  3  4  0
  1 14  4  0
  1  2  1  0
  3  4  4  0
  4  5  4  0
  5  6  4  0
  5 22  1  0
  6  7  1  0
  6 14  4  0
  7  8  1  0
  8  9  4  0
  8 12  4  0
  9 10  4  0
 10 11  4  0
 11 12  4  0
 12 13  1  0
 13 14  1  0
 13 15  1  6
 15 16  4  0
 15 20  4  0
 16 17  4  0
 17 18  4  0
 17 21  1  0
 18 19  4  0
 19 20  4  0
 23 24  4  0
 24 25  1  0
 25 26  2  0
 25 27  1  0
 27 28  1  0
 28 29  1  0
 29 30  2  0
 29 31  1  0
 31 32  1  0
 32 33  1  0
 33 34  1  0
 34 35  4  0
 35 36  4  0
 36 37  4  0
 37 38  4  0
 38 39  4  0
 24 40  4  0
 40 41  4  0
 41 42  1  0
 39 34  4  0
  2 23  4  0
  2 41  4  0
M  END
$$$$

     RDKit          3D

 42 47  0  0  0  0  0  0  0  0999 V2000
   -7.6410    4.9930    6.8080 C   0  0  0  0  0  0  0  0  0  1  0  0
   -7.7310    4.0530    5.7140 C   0  0  0  0  0  0  0  0  0  2  0  0
   -6.4520    5.6300    6.8680 N   0  0  0  0  0  0  0  0  0  0  0  0
   -6.2260    6.5240    7.8670 N   0  0  0  0  0  0  0  0  0  0  0  0
   -7.1930    6.7500    8.7820 C   0  0  0  0  0  0  0  0  0  0  0  0
   -8.4240    6.1170    8.7580 C   0  0  0  0  0  0  0  0  0  0  0  0
   -9.3950    6.3570    9.7450 N   0  0  0  0  0  0  0  0  0  0  0  0
  -10.5620    5.6840    9.7600 C   0  0  0  0  0  0  0  0  0  0  0  0
  -11.5770    5.6820   10.5960 N   0  0  0  0  0  0  0  0  0  0  0  0
  -12.4690    4.7490   10.1080 N   0  0  0  0  0  0  0  0  0  0  0  0
  -12.0160    4.1880    8.9920 N   0  0  0  0  0  0  0  0  0  0  0  0
  -10.8400    4.7900    8.7610 N   0  0  0  0  0  0  0  0  0  0  0  0
   -9.9950    4.4790    7.6090 C   0  0  0  0  0  0  0  0  0  0  0  0
   -8.6630    5.2070    7.7200 C   0  0  0  0  0  0  0  0  0  0  0  0
  -10.7490    4.8610    6.3730 C   0  0  0  0  0  0  0  0  0  0  0  0
  -11.0350    6.2020    6.1170 C   0  0  0  0  0  0  0  0  0  0  0  0
  -11.7370    6.5580    4.9650 C   0  0  0  0  0  0  0  0  0  0  0  0
  -12.1550    5.5730    4.0710 C   0  0  0  0  0  0  0  0  0  0  0  0
  -11.8700    4.2310    4.3270 C   0  0  0  0  0  0  0  0  0  0  0  0
  -11.1660    3.8760    5.4790 C   0  0  0  0  0  0  0  0  0  0  0  0
  -12.0160    7.8660    4.7150 O   0  0  0  0  0  0  0  0  0  0  0  0
   -6.8990    7.6510    9.7710 O   0  0  0  0  0  0  0  0  0  0  0  0
   -6.8007    3.0503    5.3757 C   0  0  0  0  0  0  0  0  0  0  0  0
   -7.1485    2.2131    4.3192 C   0  0  0  0  0  0  0  0  0  0  0  0
   -6.3491    1.1015    3.7753 C   0  0  0  0  0  0  0  0  0  0  0  0
   -6.8479    0.3662    2.8808 O   0  0  0  0  0  0  0  0  0  0  0  0
   -5.0087    0.8618    4.2309 N   0  0  0  0  0  0  0  0  0  0  0  0
   -4.2986   -0.2982    3.8726 N   0  0  0  0  0  0  0  0  0  0  0  0
   -4.8436   -1.6211    3.9997 C   0  0  0  0  0  0  0  0  0  0  0  0
   -6.0884   -1.9054    5.0390 S   0  0  0  0  0  0  0  0  0  0  0  0
   -4.1923   -2.7079    3.3226 N   0  0  0  0  0  0  0  0  0  0  0  0
   -4.6511   -4.0968    3.4159 C   0  0  0  0  0  0  0  0  0  0  0  0
   -3.7781   -5.0359    2.5726 C   0  0  0  0  0  0  0  0  0  0  0  0
   -2.3645   -5.1094    3.0948 C   0  0  0  0  0  0  0  0  0  0  0  0
   -1.3021   -4.5578    2.3574 C   0  0  0  0  0  0  0  0  0  0  0  0
    0.0062   -4.6274    2.8462 C   0  0  0  0  0  0  0  0  0  0  0  0
    0.2653   -5.2545    4.0680 C   0  0  0  0  0  0  0  0  0  0  0  0
   -0.7837   -5.8124    4.8037 C   0  0  0  0  0  0  0  0  0  0  0  0
   -2.0938   -5.7428    4.3201 C   0  0  0  0  0  0  0  0  0  0  0  0
   -8.6754    2.6546    3.7689 S   0  0  0  0  0  0  0  0  0  0  0  0
   -8.9065    3.9210    4.8502 C   0  0  0  0  0  0  0  0  0  0  0  0
  -10.1282    4.7838    4.8783 C   0  0  0  0  0  0  0  0  0  0  0  0
  1  3  4  0
  1 14  4  0
  1  2  1  0
  3  4  4  0
  4  5  4  0
  5  6  4  0
  5 22  1  0
  6  7  1  0
  6 14  4  0
  7  8  1  0
  8  9  4  0
  8 12  4  0
  9 10  4  0
 10 11  4  0
 11 12  4  0
 12 13  1  0
 13 14  1  0
 13 15  1  6
 15 16  4  0
 15 20  4  0
 16 17  4  0
 17 18  4  0
 17 21  1  0
 18 19  4  0
 19 20  4  0
 23 24  4  0
 24 25  1  0
 25 26  2  0
 25 27  1  0
 27 28  1  0
 28 29  1  0
 29 30  2  0
 29 31  1  0
 31 32  1  0
 32 33  1  0
 33 34  1  0
 34 35  4  0
 35 36  4  0
 36 37  4  0
 37 38  4  0
 38 39  4  0
 24 40  4  0
 40 41  4  0
 41 42  1  0
 39 34  4  0
  2 23  4  0
  2 41  4  0
M  END
$$$$

     RDKit          3D

 42 47  0  0  0  0  0  0  0  0999 V2000
   -7.6410    4.9930    6.8080 C   0  0  0  0  0  0  0  0  0  1  0  0
   -7.7310    4.0530    5.7140 C   0  0  0  0  0  0  0  0  0  2  0  0
   -6.4520    5.6300    6.8680 N   0  0  0  0  0  0  0  0  0  0  0  0
   -6.2260    6.5240    7.8670 N   0  0  0  0  0  0  0  0  0  0  0  0
   -7.1930    6.7500    8.7820 C   0  0  0  0  0  0  0  0  0  0  0  0
   -8.4240    6.1170    8.7580 C   0  0  0  0  0  0  0  0  0  0  0  0
   -9.3950    6.3570    9.7450 N   0  0  0  0  0  0  0  0  0  0  0  0
  -10.5620    5.6840    9.7600 C   0  0  0  0  0  0  0  0  0  0  0  0
  -11.5770    5.6820   10.5960 N   0  0  0  0  0  0  0  0  0  0  0  0
  -12.4690    4.7490   10.1080 N   0  0  0  0  0  0  0  0  0  0  0  0
  -12.0160    4.1880    8.9920 N   0  0  0  0  0  0  0  0  0  0  0  0
  -10.8400    4.7900    8.7610 N   0  0  0  0  0  0  0  0  0  0  0  0
   -9.9950    4.4790    7.6090 C   0  0  0  0  0  0  0  0  0  0  0  0
   -8.6630    5.2070    7.7200 C   0  0  0  0  0  0  0  0  0  0  0  0
  -10.7490    4.8610    6.3730 C   0  0  0  0  0  0  0  0  0  0  0  0
  -11.0350    6.2020    6.1170 C   0  0  0  0  0  0  0  0  0  0  0  0
  -11.7370    6.5580    4.9650 C   0  0  0  0  0  0  0  0  0  0  0  0
  -12.1550    5.5730    4.0710 C   0  0  0  0  0  0  0  0  0  0  0  0
  -11.8700    4.2310    4.3270 C   0  0  0  0  0  0  0  0  0  0  0  0
  -11.1660    3.8760    5.4790 C   0  0  0  0  0  0  0  0  0  0  0  0
  -12.0160    7.8660    4.7150 O   0  0  0  0  0  0  0  0  0  0  0  0
   -6.8990    7.6510    9.7710 O   0  0  0  0  0  0  0  0  0  0  0  0
   -6.7996    3.0520    5.3742 C   0  0  0  0  0  0  0  0  0  0  0  0
   -7.1446    2.2133    4.3193 C   0  0  0  0  0  0  0  0  0  0  0  0
   -6.3394    1.0774    3.8330 C   0  0  0  0  0  0  0  0  0  0  0  0
   -5.4206    0.6183    4.5626 O   0  0  0  0  0  0  0  0  0  0  0  0
   -6.6024    0.4510    2.5719 N   0  0  0  0  0  0  0  0  0  0  0  0
   -6.9765    1.1942    1.4375 N   0  0  0  0  0  0  0  0  0  0  0  0
   -7.2783    0.5557    0.1909 C   0  0  0  0  0  0  0  0  0  0  0  0
   -8.3706    1.2414   -0.8167 S   0  0  0  0  0  0  0  0  0  0  0  0
   -6.6522   -0.6777   -0.1853 N   0  0  0  0  0  0  0  0  0  0  0  0
   -5.2096   -0.8780   -0.0602 C   0  0  0  0  0  0  0  0  0  0  0  0
   -4.5210   -0.5559   -1.3889 C   0  0  0  0  0  0  0  0  0  0  0  0
   -3.0257   -0.7046   -1.2754 C   0  0  0  0  0  0  0  0  0  0  0  0
   -2.4492   -1.9795   -1.1408 C   0  0  0  0  0  0  0  0  0  0  0  0
   -1.0615   -2.1190   -1.0403 C   0  0  0  0  0  0  0  0  0  0  0  0
   -0.2395   -0.9895   -1.0762 C   0  0  0  0  0  0  0  0  0  0  0  0
   -0.8038    0.2813   -1.2143 C   0  0  0  0  0  0  0  0  0  0  0  0
   -2.1913    0.4257   -1.3152 C   0  0  0  0  0  0  0  0  0  0  0  0
   -8.6833    2.6377    3.7842 S   0  0  0  0  0  0  0  0  0  0  0  0
   -8.9115    3.9113    4.8575 C   0  0  0  0  0  0  0  0  0  0  0  0
  -10.1387    4.7660    4.8907 C   0  0  0  0  0  0  0  0  0  0  0  0
  1  3  4  0
  1 14  4  0
  1  2  1  0
  3  4  4  0
  4  5  4  0
  5  6  4  0
  5 22  1  0
  6  7  1  0
  6 14  4  0
  7  8  1  0
  8  9  4  0
  8 12  4  0
  9 10  4  0
 10 11  4  0
 11 12  4  0
 12 13  1  0
 13 14  1  0
 13 15  1  6
 15 16  4  0
 15 20  4  0
 16 17  4  0
 17 18  4  0
 17 21  1  0
 18 19  4  0
 19 20  4  0
 23 24  4  0
 24 25  1  0
 25 26  2  0
 25 27  1  0
 27 28  1  0
 28 29  1  0
 29 30  2  0
 29 31  1  0
 31 32  1  0
 32 33  1  0
 33 34  1  0
 34 35  4  0
 35 36  4  0
 36 37  4  0
 37 38  4  0
 38 39  4  0
 24 40  4  0
 40 41  4  0
 41 42  1  0
 39 34  4  0
  2 23  4  0
  2 41  4  0
M  END
$$$$

     RDKit          3D

 42 47  0  0  0  0  0  0  0  0999 V2000
   -7.6410    4.9930    6.8080 C   0  0  0  0  0  0  0  0  0  1  0  0
   -7.7310    4.0530    5.7140 C   0  0  0  0  0  0  0  0  0  2  0  0
   -6.4520    5.6300    6.8680 N   0  0  0  0  0  0  0  0  0  0  0  0
   -6.2260    6.5240    7.8670 N   0  0  0  0  0  0  0  0  0  0  0  0
   -7.1930    6.7500    8.7820 C   0  0  0  0  0  0  0  0  0  0  0  0
   -8.4240    6.1170    8.7580 C   0  0  0  0  0  0  0  0  0  0  0  0
   -9.3950    6.3570    9.7450 N   0  0  0  0  0  0  0  0  0  0  0  0
  -10.5620    5.6840    9.7600 C   0  0  0  0  0  0  0  0  0  0  0  0
  -11.5770    5.6820   10.5960 N   0  0  0  0  0  0  0  0  0  0  0  0
  -12.4690    4.7490   10.1080 N   0  0  0  0  0  0  0  0  0  0  0  0
  -12.0160    4.1880    8.9920 N   0  0  0  0  0  0  0  0  0  0  0  0
  -10.8400    4.7900    8.7610 N   0  0  0  0  0  0  0  0  0  0  0  0
   -9.9950    4.4790    7.6090 C   0  0  0  0  0  0  0  0  0  0  0  0
   -8.6630    5.2070    7.7200 C   0  0  0  0  0  0  0  0  0  0  0  0
  -10.7490    4.8610    6.3730 C   0  0  0  0  0  0  0  0  0  0  0  0
  -11.0350    6.2020    6.1170 C   0  0  0  0  0  0  0  0  0  0  0  0
  -11.7370    6.5580    4.9650 C   0  0  0  0  0  0  0  0  0  0  0  0
  -12.1550    5.5730    4.0710 C   0  0  0  0  0  0  0  0  0  0  0  0
  -11.8700    4.2310    4.3270 C   0  0  0  0  0  0  0  0  0  0  0  0
  -11.1660    3.8760    5.4790 C   0  0  0  0  0  0  0  0  0  0  0  0
  -12.0160    7.8660    4.7150 O   0  0  0  0  0  0  0  0  0  0  0  0
   -6.8990    7.6510    9.7710 O   0  0  0  0  0  0  0  0  0  0  0  0
   -6.8043    3.0454    5.3807 C   0  0  0  0  0  0  0  0  0  0  0  0
   -7.1560    2.2020    4.3321 C   0  0  0  0  0  0  0  0  0  0  0  0
   -6.3333    1.1030    3.7988 C   0  0  0  0  0  0  0  0  0  0  0  0
   -5.2042    0.8710    4.3074 O   0  0  0  0  0  0  0  0  0  0  0  0
   -6.8274    0.2733    2.7403 N   0  0  0  0  0  0  0  0  0  0  0  0
   -5.9930   -0.5713    1.9887 N   0  0  0  0  0  0  0  0  0  0  0  0
   -4.9992   -0.0272    1.1065 C   0  0  0  0  0  0  0  0  0  0  0  0
   -3.6783    0.7245    1.7178 S   0  0  0  0  0  0  0  0  0  0  0  0
   -5.0905   -0.2231   -0.3136 N   0  0  0  0  0  0  0  0  0  0  0  0
   -6.2437   -0.8385   -0.9668 C   0  0  0  0  0  0  0  0  0  0  0  0
   -6.0087   -2.3415   -1.1454 C   0  0  0  0  0  0  0  0  0  0  0  0
   -7.2082   -3.0064   -1.7682 C   0  0  0  0  0  0  0  0  0  0  0  0
   -8.3948   -3.1563   -1.0295 C   0  0  0  0  0  0  0  0  0  0  0  0
   -9.5086   -3.7760   -1.6033 C   0  0  0  0  0  0  0  0  0  0  0  0
   -9.4448   -4.2586   -2.9130 C   0  0  0  0  0  0  0  0  0  0  0  0
   -8.2677   -4.1168   -3.6537 C   0  0  0  0  0  0  0  0  0  0  0  0
   -7.1517   -3.4951   -3.0848 C   0  0  0  0  0  0  0  0  0  0  0  0
   -8.6754    2.6537    3.7690 S   0  0  0  0  0  0  0  0  0  0  0  0
   -8.9046    3.9240    4.8472 C   0  0  0  0  0  0  0  0  0  0  0  0
  -10.1292    4.7831    4.8766 C   0  0  0  0  0  0  0  0  0  0  0  0
  1  3  4  0
  1 14  4  0
  1  2  1  0
  3  4  4  0
  4  5  4  0
  5  6  4  0
  5 22  1  0
  6  7  1  0
  6 14  4  0
  7  8  1  0
  8  9  4  0
  8 12  4  0
  9 10  4  0
 10 11  4  0
 11 12  4  0
 12 13  1  0
 13 14  1  0
 13 15  1  6
 15 16  4  0
 15 20  4  0
 16 17  4  0
 17 18  4  0
 17 21  1  0
 18 19  4  0
 19 20  4  0
 23 24  4  0
 24 25  1  0
 25 26  2  0
 25 27  1  0
 27 28  1  0
 28 29  1  0
 29 30  2  0
 29 31  1  0
 31 32  1  0
 32 33  1  0
 33 34  1  0
 34 35  4  0
 35 36  4  0
 36 37  4  0
 37 38  4  0
 38 39  4  0
 24 40  4  0
 40 41  4  0
 41 42  1  0
 39 34  4  0
  2 23  4  0
  2 41  4  0
M  END
$$$$

     RDKit          3D

 33 37  0  0  0  0  0  0  0  0999 V2000
   -7.6410    4.9930    6.8080 C   0  0  0  0  0  0  0  0  0  1  0  0
   -7.7310    4.0530    5.7140 C   0  0  0  0  0  0  0  0  0  2  0  0
   -6.4520    5.6300    6.8680 N   0  0  0  0  0  0  0  0  0  0  0  0
   -6.2260    6.5240    7.8670 N   0  0  0  0  0  0  0  0  0  0  0  0
   -7.1930    6.7500    8.7820 C   0  0  0  0  0  0  0  0  0  0  0  0
   -8.4240    6.1170    8.7580 C   0  0  0  0  0  0  0  0  0  0  0  0
   -9.3950    6.3570    9.7450 N   0  0  0  0  0  0  0  0  0  0  0  0
  -10.5620    5.6840    9.7600 C   0  0  0  0  0  0  0  0  0  0  0  0
  -11.5770    5.6820   10.5960 N   0  0  0  0  0  0  0  0  0  0  0  0
  -12.4690    4.7490   10.1080 N   0  0  0  0  0  0  0  0  0  0  0  0
  -12.0160    4.1880    8.9920 N   0  0  0  0  0  0  0  0  0  0  0  0
  -10.8400    4.7900    8.7610 N   0  0  0  0  0  0  0  0  0  0  0  0
   -9.9950    4.4790    7.6090 C   0  0  0  0  0  0  0  0  0  0  0  0
   -8.6630    5.2070    7.7200 C   0  0  0  0  0  0  0  0  0  0  0  0
  -10.7490    4.8610    6.3730 C   0  0  0  0  0  0  0  0  0  0  0  0
  -11.0350    6.2020    6.1170 C   0  0  0  0  0  0  0  0  0  0  0  0
  -11.7370    6.5580    4.9650 C   0  0  0  0  0  0  0  0  0  0  0  0
  -12.1550    5.5730    4.0710 C   0  0  0  0  0  0  0  0  0  0  0  0
  -11.8700    4.2310    4.3270 C   0  0  0  0  0  0  0  0  0  0  0  0
  -11.1660    3.8760    5.4790 C   0  0  0  0  0  0  0  0  0  0  0  0
  -12.0160    7.8660    4.7150 O   0  0  0  0  0  0  0  0  0  0  0  0
   -6.8990    7.6510    9.7710 O   0  0  0  0  0  0  0  0  0  0  0  0
   -6.8121    3.1402    5.3364 N   0  0  0  0  0  0  0  0  0  0  0  0
   -7.2854    2.3839    4.3588 N   0  0  0  0  0  0  0  0  0  0  0  0
   -6.4988    1.3699    3.6645 C   0  0  0  0  0  0  0  0  0  0  0  0
   -5.7498    2.0009    2.4916 C   0  0  0  0  0  0  0  0  0  0  0  0
   -4.9505    0.9908    1.7897 C   0  0  0  0  0  0  0  0  0  0  0  0
   -4.3198    0.1941    1.2358 N   0  0  0  0  0  0  0  0  0  0  0  0
   -8.5416    2.7564    4.0505 C   0  0  0  0  0  0  0  0  0  0  0  0
   -8.8998    3.7983    4.8817 C   0  0  0  0  0  0  0  0  0  0  0  0
  -10.1498    4.5721    4.7904 C   0  0  0  0  0  0  0  0  0  0  0  0
  -10.2634    5.6863    5.3644 O   0  0  0  0  0  0  0  0  0  0  0  0
  -11.2061    4.0902    4.0274 O   0  0  0  0  0  0  0  0  0  0  0  0
  1  3  4  0
  1 14  4  0
  1  2  1  0
  3  4  4  0
  4  5  4  0
  5  6  4  0
  5 22  1  0
  6  7  1  0
  6 14  4  0
  7  8  1  0
  8  9  4  0
  8 12  4  0
  9 10  4  0
 10 11  4  0
 11 12  4  0
 12 13  1  0
 13 14  1  0
 13 15  1  6
 15 16  4  0
 15 20  4  0
 16 17  4  0
 17 18  4  0
 17 21  1  0
 18 19  4  0
 19 20  4  0
 23 24  4  0
 24 25  1  0
 25 26  1  0
 26 27  1  0
 27 28  3  0
 24 29  4  0
 29 30  4  0
 30 31  1  0
 31 32  2  0
 31 33  1  0
  2 23  4  0
  2 30  4  0
M  CHG  1  33  -1
M  END
$$$$

     RDKit          3D

 42 49  0  0  0  0  0  0  0  0999 V2000
   -7.6410    4.9930    6.8080 C   0  0  0  0  0  0  0  0  0  1  0  0
   -7.7310    4.0530    5.7140 C   0  0  0  0  0  0  0  0  0  2  0  0
   -6.4520    5.6300    6.8680 N   0  0  0  0  0  0  0  0  0  0  0  0
   -6.2260    6.5240    7.8670 N   0  0  0  0  0  0  0  0  0  0  0  0
   -7.1930    6.7500    8.7820 C   0  0  0  0  0  0  0  0  0  0  0  0
   -8.4240    6.1170    8.7580 C   0  0  0  0  0  0  0  0  0  0  0  0
   -9.3950    6.3570    9.7450 N   0  0  0  0  0  0  0  0  0  0  0  0
  -10.5620    5.6840    9.7600 C   0  0  0  0  0  0  0  0  0  0  0  0
  -11.5770    5.6820   10.5960 N   0  0  0  0  0  0  0  0  0  0  0  0
  -12.4690    4.7490   10.1080 N   0  0  0  0  0  0  0  0  0  0  0  0
  -12.0160    4.1880    8.9920 N   0  0  0  0  0  0  0  0  0  0  0  0
  -10.8400    4.7900    8.7610 N   0  0  0  0  0  0  0  0  0  0  0  0
   -9.9950    4.4790    7.6090 C   0  0  0  0  0  0  0  0  0  0  0  0
   -8.6630    5.2070    7.7200 C   0  0  0  0  0  0  0  0  0  0  0  0
  -10.7490    4.8610    6.3730 C   0  0  0  0  0  0  0  0  0  0  0  0
  -11.0350    6.2020    6.1170 C   0  0  0  0  0  0  0  0  0  0  0  0
  -11.7370    6.5580    4.9650 C   0  0  0  0  0  0  0  0  0  0  0  0
  -12.1550    5.5730    4.0710 C   0  0  0  0  0  0  0  0  0  0  0  0
  -11.8700    4.2310    4.3270 C   0  0  0  0  0  0  0  0  0  0  0  0
  -11.1660    3.8760    5.4790 C   0  0  0  0  0  0  0  0  0  0  0  0
  -12.0160    7.8660    4.7150 O   0  0  0  0  0  0  0  0  0  0  0  0
   -6.8990    7.6510    9.7710 O   0  0  0  0  0  0  0  0  0  0  0  0
   -6.8441    3.0913    5.3624 N   0  0  0  0  0  0  0  0  0  0  0  0
   -7.2986    2.5196    4.2326 C   0  0  0  0  0  0  0  0  0  0  0  0
   -6.6368    1.5505    3.4817 C   0  0  0  0  0  0  0  0  0  0  0  0
   -7.2355    1.1295    2.2852 C   0  0  0  0  0  0  0  0  0  0  0  0
   -8.4630    1.6852    1.8669 C   0  0  0  0  0  0  0  0  0  0  0  0
   -9.0630    1.2723    0.6364 N   0  0  0  0  0  0  0  0  0  0  0  0
   -9.0834    2.6597    2.6676 C   0  0  0  0  0  0  0  0  0  0  0  0
   -8.4747    3.0317    3.8273 N   0  0  0  0  0  0  0  0  0  0  0  0
   -8.8069    3.9710    4.7402 C   0  0  0  0  0  0  0  0  0  0  0  0
   -9.9275    4.9683    4.5936 C   0  0  0  0  0  0  0  0  0  0  0  0
   -9.3873    6.2951    4.2232 N   0  0  0  0  0  0  0  0  0  0  0  0
  -10.3365    7.3885    4.5103 C   0  0  0  0  0  0  0  0  0  0  0  0
  -11.6153    7.3050    3.6558 C   0  0  0  0  0  0  0  0  0  0  0  0
  -11.3534    6.8609    2.2377 C   0  0  0  0  0  0  0  0  0  0  0  0
  -12.4077    6.8691    1.3121 C   0  0  0  0  0  0  0  0  0  0  0  0
  -12.2060    6.4123    0.0075 C   0  0  0  0  0  0  0  0  0  0  0  0
  -10.9525    5.9389   -0.3835 C   0  0  0  0  0  0  0  0  0  0  0  0
   -9.8965    5.9194    0.5298 C   0  0  0  0  0  0  0  0  0  0  0  0
  -10.0913    6.3662    1.8461 C   0  0  0  0  0  0  0  0  0  0  0  0
   -8.9370    6.3590    2.8173 C   0  0  0  0  0  0  0  0  0  0  0  0
  1  3  4  0
  1 14  4  0
  1  2  1  0
  3  4  4  0
  4  5  4  0
  5  6  4  0
  5 22  1  0
  6  7  1  0
  6 14  4  0
  7  8  1  0
  8  9  4  0
  8 12  4  0
  9 10  4  0
 10 11  4  0
 11 12  4  0
 12 13  1  0
 13 14  1  0
 13 15  1  6
 15 16  4  0
 15 20  4  0
 16 17  4  0
 17 18  4  0
 17 21  1  0
 18 19  4  0
 19 20  4  0
 23 24  4  0
 24 25  4  0
 25 26  4  0
 26 27  4  0
 27 28  1  0
 27 29  4  0
 29 30  4  0
 30 31  4  0
 31 32  1  0
 32 33  1  0
 33 34  1  0
 34 35  1  0
 35 36  1  0
 36 37  4  0
 37 38  4  0
 38 39  4  0
 39 40  4  0
 40 41  4  0
 41 42  1  0
 42 33  1  0
 30 24  4  0
 41 36  4  0
  2 23  4  0
  2 31  4  0
M  CHG  1  23   1
M  END
$$$$

     RDKit          3D

 44 50  0  0  0  0  0  0  0  0999 V2000
   -7.6410    4.9930    6.8080 C   0  0  0  0  0  0  0  0  0  1  0  0
   -7.7310    4.0530    5.7140 C   0  0  0  0  0  0  0  0  0  2  0  0
   -6.4520    5.6300    6.8680 N   0  0  0  0  0  0  0  0  0  0  0  0
   -6.2260    6.5240    7.8670 N   0  0  0  0  0  0  0  0  0  0  0  0
   -7.1930    6.7500    8.7820 C   0  0  0  0  0  0  0  0  0  0  0  0
   -8.4240    6.1170    8.7580 C   0  0  0  0  0  0  0  0  0  0  0  0
   -9.3950    6.3570    9.7450 N   0  0  0  0  0  0  0  0  0  0  0  0
  -10.5620    5.6840    9.7600 C   0  0  0  0  0  0  0  0  0  0  0  0
  -11.5770    5.6820   10.5960 N   0  0  0  0  0  0  0  0  0  0  0  0
  -12.4690    4.7490   10.1080 N   0  0  0  0  0  0  0  0  0  0  0  0
  -12.0160    4.1880    8.9920 N   0  0  0  0  0  0  0  0  0  0  0  0
  -10.8400    4.7900    8.7610 N   0  0  0  0  0  0  0  0  0  0  0  0
   -9.9950    4.4790    7.6090 C   0  0  0  0  0  0  0  0  0  0  0  0
   -8.6630    5.2070    7.7200 C   0  0  0  0  0  0  0  0  0  0  0  0
  -10.7490    4.8610    6.3730 C   0  0  0  0  0  0  0  0  0  0  0  0
  -11.0350    6.2020    6.1170 C   0  0  0  0  0  0  0  0  0  0  0  0
  -11.7370    6.5580    4.9650 C   0  0  0  0  0  0  0  0  0  0  0  0
  -12.1550    5.5730    4.0710 C   0  0  0  0  0  0  0  0  0  0  0  0
  -11.8700    4.2310    4.3270 C   0  0  0  0  0  0  0  0  0  0  0  0
  -11.1660    3.8760    5.4790 C   0  0  0  0  0  0  0  0  0  0  0  0
  -12.0160    7.8660    4.7150 O   0  0  0  0  0  0  0  0  0  0  0  0
   -6.8990    7.6510    9.7710 O   0  0  0  0  0  0  0  0  0  0  0  0
   -6.8936    2.9856    5.6124 N   0  0  0  0  0  0  0  0  0  0  0  0
   -6.9659    2.0191    4.6924 N   0  0  0  0  0  0  0  0  0  0  0  0
   -5.9333    0.9626    4.6822 C   0  0  0  0  0  0  0  0  0  0  0  0
   -4.8051    1.3243    3.7096 C   0  0  0  0  0  0  0  0  0  0  0  0
   -5.3957    0.6854    6.0709 C   0  0  0  0  0  0  0  0  0  0  0  0
   -5.8177   -0.3259    6.6955 O   0  0  0  0  0  0  0  0  0  0  0  0
   -4.4536    1.5795    6.6915 N   0  0  0  0  0  0  0  0  0  0  0  0
   -3.6456    1.2361    7.8356 C   0  0  0  0  0  0  0  0  0  0  0  0
   -3.2054   -0.0877    8.0349 C   0  0  0  0  0  0  0  0  0  0  0  0
   -2.4434   -0.4166    9.1614 C   0  0  0  0  0  0  0  0  0  0  0  0
   -2.0910    0.5693   10.0804 C   0  0  0  0  0  0  0  0  0  0  0  0
   -2.4901    1.8914    9.8772 C   0  0  0  0  0  0  0  0  0  0  0  0
   -3.2605    2.2316    8.7599 C   0  0  0  0  0  0  0  0  0  0  0  0
   -3.7731    3.9038    8.5766 Cl  0  0  0  0  0  0  0  0  0  0  0  0
   -7.9551    2.0455    3.7445 C   0  0  0  0  0  0  0  0  0  0  0  0
   -8.0009    1.1578    2.8465 O   0  0  0  0  0  0  0  0  0  0  0  0
   -8.9167    3.0710    3.7578 C   0  0  0  0  0  0  0  0  0  0  0  0
   -8.8196    4.0908    4.7315 C   0  0  0  0  0  0  0  0  0  0  0  0
   -9.8222    5.2298    4.7750 C   0  0  0  0  0  0  0  0  0  0  0  0
  -10.5661    5.4182    3.4524 C   0  0  0  0  0  0  0  0  0  0  0  0
  -11.1126    4.0787    2.9670 C   0  0  0  0  0  0  0  0  0  0  0  0
   -9.9625    3.1211    2.6584 C   0  0  0  0  0  0  0  0  0  0  0  0
  1  3  4  0
  1 14  4  0
  1  2  1  0
  3  4  4  0
  4  5  4  0
  5  6  4  0
  5 22  1  0
  6  7  1  0
  6 14  4  0
  7  8  1  0
  8  9  4  0
  8 12  4  0
  9 10  4  0
 10 11  4  0
 11 12  4  0
 12 13  1  0
 13 14  1  0
 13 15  1  6
 15 16  4  0
 15 20  4  0
 16 17  4  0
 17 18  4  0
 17 21  1  0
 18 19  4  0
 19 20  4  0
 23 24  4  0
 24 25  1  0
 25 26  1  0
 25 27  1  0
 27 28  2  0
 27 29  1  0
 29 30  1  0
 30 31  4  0
 31 32  4  0
 32 33  4  0
 33 34  4  0
 34 35  4  0
 35 36  1  0
 24 37  4  0
 37 38  2  0
 37 39  4  0
 39 40  4  0
 40 41  1  0
 41 42  1  0
 42 43  1  0
 43 44  1  0
 35 30  4  0
 44 39  1  0
  2 23  4  0
  2 40  4  0
M  END
$$$$

     RDKit          3D

 44 50  0  0  0  0  0  0  0  0999 V2000
   -7.6410    4.9930    6.8080 C   0  0  0  0  0  0  0  0  0  1  0  0
   -7.7310    4.0530    5.7140 C   0  0  0  0  0  0  0  0  0  2  0  0
   -6.4520    5.6300    6.8680 N   0  0  0  0  0  0  0  0  0  0  0  0
   -6.2260    6.5240    7.8670 N   0  0  0  0  0  0  0  0  0  0  0  0
   -7.1930    6.7500    8.7820 C   0  0  0  0  0  0  0  0  0  0  0  0
   -8.4240    6.1170    8.7580 C   0  0  0  0  0  0  0  0  0  0  0  0
   -9.3950    6.3570    9.7450 N   0  0  0  0  0  0  0  0  0  0  0  0
  -10.5620    5.6840    9.7600 C   0  0  0  0  0  0  0  0  0  0  0  0
  -11.5770    5.6820   10.5960 N   0  0  0  0  0  0  0  0  0  0  0  0
  -12.4690    4.7490   10.1080 N   0  0  0  0  0  0  0  0  0  0  0  0
  -12.0160    4.1880    8.9920 N   0  0  0  0  0  0  0  0  0  0  0  0
  -10.8400    4.7900    8.7610 N   0  0  0  0  0  0  0  0  0  0  0  0
   -9.9950    4.4790    7.6090 C   0  0  0  0  0  0  0  0  0  0  0  0
   -8.6630    5.2070    7.7200 C   0  0  0  0  0  0  0  0  0  0  0  0
  -10.7490    4.8610    6.3730 C   0  0  0  0  0  0  0  0  0  0  0  0
  -11.0350    6.2020    6.1170 C   0  0  0  0  0  0  0  0  0  0  0  0
  -11.7370    6.5580    4.9650 C   0  0  0  0  0  0  0  0  0  0  0  0
  -12.1550    5.5730    4.0710 C   0  0  0  0  0  0  0  0  0  0  0  0
  -11.8700    4.2310    4.3270 C   0  0  0  0  0  0  0  0  0  0  0  0
  -11.1660    3.8760    5.4790 C   0  0  0  0  0  0  0  0  0  0  0  0
  -12.0160    7.8660    4.7150 O   0  0  0  0  0  0  0  0  0  0  0  0
   -6.8990    7.6510    9.7710 O   0  0  0  0  0  0  0  0  0  0  0  0
   -6.8728    3.0059    5.5934 N   0  0  0  0  0  0  0  0  0  0  0  0
   -6.9203    2.0616    4.6512 N   0  0  0  0  0  0  0  0  0  0  0  0
   -5.9057    0.9892    4.6669 C   0  0  0  0  0  0  0  0  0  0  0  0
   -4.5223    1.5183    5.0711 C   0  0  0  0  0  0  0  0  0  0  0  0
   -6.3467   -0.1235    5.5813 C   0  0  0  0  0  0  0  0  0  0  0  0
   -6.6341   -1.2485    5.0869 O   0  0  0  0  0  0  0  0  0  0  0  0
   -6.4754    0.0957    6.9939 N   0  0  0  0  0  0  0  0  0  0  0  0
   -6.7918   -0.9557    7.9158 C   0  0  0  0  0  0  0  0  0  0  0  0
   -7.9195   -0.8229    8.7403 C   0  0  0  0  0  0  0  0  0  0  0  0
   -8.2425   -1.8194    9.6648 C   0  0  0  0  0  0  0  0  0  0  0  0
   -7.4279   -2.9484    9.7874 C   0  0  0  0  0  0  0  0  0  0  0  0
   -6.2883   -3.0803    8.9876 C   0  0  0  0  0  0  0  0  0  0  0  0
   -5.9589   -2.0863    8.0570 C   0  0  0  0  0  0  0  0  0  0  0  0
   -4.4589   -2.2484    7.1486 Cl  0  0  0  0  0  0  0  0  0  0  0  0
   -7.9408    2.0538    3.7367 C   0  0  0  0  0  0  0  0  0  0  0  0
   -8.0089    1.1412    2.8654 O   0  0  0  0  0  0  0  0  0  0  0  0
   -8.9161    3.0665    3.7606 C   0  0  0  0  0  0  0  0  0  0  0  0
   -8.8236    4.0841    4.7373 C   0  0  0  0  0  0  0  0  0  0  0  0
   -9.8489    5.2020    4.7952 C   0  0  0  0  0  0  0  0  0  0  0  0
  -10.5832    5.4011    3.4696 C   0  0  0  0  0  0  0  0  0  0  0  0
  -11.1202    4.0657    2.9664 C   0  0  0  0  0  0  0  0  0  0  0  0
   -9.9648    3.1093    2.6636 C   0  0  0  0  0  0  0  0  0  0  0  0
  1  3  4  0
  1 14  4  0
  1  2  1  0
  3  4  4  0
  4  5  4  0
  5  6  4  0
  5 22  1  0
  6  7  1  0
  6 14  4  0
  7  8  1  0
  8  9  4  0
  8 12  4  0
  9 10  4  0
 10 11  4  0
 11 12  4  0
 12 13  1  0
 13 14  1  0
 13 15  1  6
 15 16  4  0
 15 20  4  0
 16 17  4  0
 17 18  4  0
 17 21  1  0
 18 19  4  0
 19 20  4  0
 23 24  4  0
 24 25  1  0
 25 26  1  0
 25 27  1  0
 27 28  2  0
 27 29  1  0
 29 30  1  0
 30 31  4  0
 31 32  4  0
 32 33  4  0
 33 34  4  0
 34 35  4  0
 35 36  1  0
 24 37  4  0
 37 38  2  0
 37 39  4  0
 39 40  4  0
 40 41  1  0
 41 42  1  0
 42 43  1  0
 43 44  1  0
 35 30  4  0
 44 39  1  0
  2 23  4  0
  2 40  4  0
M  END
$$$$

     RDKit          3D

 49 55  0  0  0  0  0  0  0  0999 V2000
   -7.6410    4.9930    6.8080 C   0  0  0  0  0  0  0  0  0  1  0  0
   -7.7310    4.0530    5.7140 C   0  0  0  0  0  0  0  0  0  2  0  0
   -6.4520    5.6300    6.8680 N   0  0  0  0  0  0  0  0  0  0  0  0
   -6.2260    6.5240    7.8670 N   0  0  0  0  0  0  0  0  0  0  0  0
   -7.1930    6.7500    8.7820 C   0  0  0  0  0  0  0  0  0  0  0  0
   -8.4240    6.1170    8.7580 C   0  0  0  0  0  0  0  0  0  0  0  0
   -9.3950    6.3570    9.7450 N   0  0  0  0  0  0  0  0  0  0  0  0
  -10.5620    5.6840    9.7600 C   0  0  0  0  0  0  0  0  0  0  0  0
  -11.5770    5.6820   10.5960 N   0  0  0  0  0  0  0  0  0  0  0  0
  -12.4690    4.7490   10.1080 N   0  0  0  0  0  0  0  0  0  0  0  0
  -12.0160    4.1880    8.9920 N   0  0  0  0  0  0  0  0  0  0  0  0
  -10.8400    4.7900    8.7610 N   0  0  0  0  0  0  0  0  0  0  0  0
   -9.9950    4.4790    7.6090 C   0  0  0  0  0  0  0  0  0  0  0  0
   -8.6630    5.2070    7.7200 C   0  0  0  0  0  0  0  0  0  0  0  0
  -10.7490    4.8610    6.3730 C   0  0  0  0  0  0  0  0  0  0  0  0
  -11.0350    6.2020    6.1170 C   0  0  0  0  0  0  0  0  0  0  0  0
  -11.7370    6.5580    4.9650 C   0  0  0  0  0  0  0  0  0  0  0  0
  -12.1550    5.5730    4.0710 C   0  0  0  0  0  0  0  0  0  0  0  0
  -11.8700    4.2310    4.3270 C   0  0  0  0  0  0  0  0  0  0  0  0
  -11.1660    3.8760    5.4790 C   0  0  0  0  0  0  0  0  0  0  0  0
  -12.0160    7.8660    4.7150 O   0  0  0  0  0  0  0  0  0  0  0  0
   -6.8990    7.6510    9.7710 O   0  0  0  0  0  0  0  0  0  0  0  0
   -6.8789    2.9993    5.4183 C   0  0  0  0  0  0  0  0  0  0  0  0
   -7.3560    2.3366    4.3127 C   0  0  0  0  0  0  0  0  0  0  0  0
   -8.5336    2.9644    3.9472 C   0  0  0  0  0  0  0  0  0  1  0  0
   -9.3691    2.5340    2.8043 C   0  0  0  0  0  0  0  0  0  2  0  0
   -8.7596    2.1864    1.5899 C   0  0  0  0  0  0  0  0  0  0  0  0
   -9.5241    1.7075    0.5248 C   0  0  0  0  0  0  0  0  0  0  0  0
  -10.9185    1.5734    0.6565 C   0  0  0  0  0  0  0  0  0  0  0  0
  -11.7220    1.0600   -0.3698 O   0  0  0  0  0  0  0  0  0  0  0  0
  -11.4004    1.0526   -1.7342 C   0  0  0  0  0  0  0  0  0  0  0  0
  -11.7895   -0.0395   -2.5083 C   0  0  0  0  0  0  0  0  0  0  0  0
  -11.4767   -0.0931   -3.8697 C   0  0  0  0  0  0  0  0  0  0  0  0
  -10.7779    0.9595   -4.4874 C   0  0  0  0  0  0  0  0  0  0  0  0
  -10.4271    0.8717   -5.9299 C   0  0  0  0  0  0  0  0  0  0  0  0
   -9.6648    1.9552   -6.6281 C   0  0  0  0  0  0  0  0  0  0  0  0
  -10.7662   -0.1449   -6.5948 O   0  0  0  0  0  0  0  0  0  0  0  0
  -10.4205    2.0765   -3.7095 C   0  0  0  0  0  0  0  0  0  0  0  0
  -10.7365    2.1245   -2.3468 C   0  0  0  0  0  0  0  0  0  0  0  0
  -11.5236    1.9027    1.8730 C   0  0  0  0  0  0  0  0  0  0  0  0
  -10.7563    2.3667    2.9448 C   0  0  0  0  0  0  0  0  0  0  0  0
   -8.7902    4.0025    4.7820 N   0  0  0  0  0  0  0  0  0  0  0  0
   -9.8377    5.0265    4.6338 C   0  0  0  0  0  0  0  0  0  0  0  0
   -9.2302    6.3829    4.4334 C   0  0  0  0  0  0  0  0  0  0  0  0
   -9.4252    7.2806    5.2908 O   0  0  0  0  0  0  0  0  0  0  0  0
   -8.4875    6.6683    3.2444 N   0  0  0  0  0  0  0  0  0  0  0  0
   -7.6604    7.8363    3.0923 C   0  0  0  0  0  0  0  0  0  0  0  0
   -7.4866    8.3522    1.9154 N   0  0  0  0  0  0  0  0  0  0  0  0
   -6.9865    8.4074    4.2126 N   0  0  0  0  0  0  0  0  0  0  0  0
  1  3  4  0
  1 14  4  0
  1  2  1  0
  3  4  4  0
  4  5  4  0
  5  6  4  0
  5 22  1  0
  6  7  1  0
  6 14  4  0
  7  8  1  0
  8  9  4  0
  8 12  4  0
  9 10  4  0
 10 11  4  0
 11 12  4  0
 12 13  1  0
 13 14  1  0
 13 15  1  6
 15 16  4  0
 15 20  4  0
 16 17  4  0
 17 18  4  0
 17 21  1  0
 18 19  4  0
 19 20  4  0
 23 24  4  0
 24 25  4  0
 25 26  1  0
 26 27  4  0
 27 28  4  0
 28 29  4  0
 29 30  1  0
 30 31  1  0
 31 32  4  0
 32 33  4  0
 33 34  4  0
 34 35  1  0
 35 36  1  0
 35 37  2  0
 34 38  4  0
 38 39  4  0
 29 40  4  0
 40 41  4  0
 25 42  4  0
 42 43  1  0
 43 44  1  0
 44 45  2  0
 44 46  1  0
 46 47  1  0
 47 48  2  0
 47 49  1  0
 41 26  4  0
 39 31  4  0
  2 23  4  0
  2 42  4  0
M  END
$$$$

     RDKit          3D

 44 49  0  0  0  0  0  0  0  0999 V2000
   -7.6410    4.9930    6.8080 C   0  0  0  0  0  0  0  0  0  1  0  0
   -7.7310    4.0530    5.7140 C   0  0  0  0  0  0  0  0  0  2  0  0
   -6.4520    5.6300    6.8680 N   0  0  0  0  0  0  0  0  0  0  0  0
   -6.2260    6.5240    7.8670 N   0  0  0  0  0  0  0  0  0  0  0  0
   -7.1930    6.7500    8.7820 C   0  0  0  0  0  0  0  0  0  0  0  0
   -8.4240    6.1170    8.7580 C   0  0  0  0  0  0  0  0  0  0  0  0
   -9.3950    6.3570    9.7450 N   0  0  0  0  0  0  0  0  0  0  0  0
  -10.5620    5.6840    9.7600 C   0  0  0  0  0  0  0  0  0  0  0  0
  -11.5770    5.6820   10.5960 N   0  0  0  0  0  0  0  0  0  0  0  0
  -12.4690    4.7490   10.1080 N   0  0  0  0  0  0  0  0  0  0  0  0
  -12.0160    4.1880    8.9920 N   0  0  0  0  0  0  0  0  0  0  0  0
  -10.8400    4.7900    8.7610 N   0  0  0  0  0  0  0  0  0  0  0  0
   -9.9950    4.4790    7.6090 C   0  0  0  0  0  0  0  0  0  0  0  0
   -8.6630    5.2070    7.7200 C   0  0  0  0  0  0  0  0  0  0  0  0
  -10.7490    4.8610    6.3730 C   0  0  0  0  0  0  0  0  0  0  0  0
  -11.0350    6.2020    6.1170 C   0  0  0  0  0  0  0  0  0  0  0  0
  -11.7370    6.5580    4.9650 C   0  0  0  0  0  0  0  0  0  0  0  0
  -12.1550    5.5730    4.0710 C   0  0  0  0  0  0  0  0  0  0  0  0
  -11.8700    4.2310    4.3270 C   0  0  0  0  0  0  0  0  0  0  0  0
  -11.1660    3.8760    5.4790 C   0  0  0  0  0  0  0  0  0  0  0  0
  -12.0160    7.8660    4.7150 O   0  0  0  0  0  0  0  0  0  0  0  0
   -6.8990    7.6510    9.7710 O   0  0  0  0  0  0  0  0  0  0  0  0
   -6.8551    3.0707    5.4092 N   0  0  0  0  0  0  0  0  0  0  0  0
   -7.3004    2.3779    4.3726 N   0  0  0  0  0  0  0  0  0  0  0  0
   -8.4827    2.9147    4.0194 C   0  0  0  0  0  0  0  0  0  0  0  0
   -9.4994    2.2584    2.6865 S   0  0  0  0  0  0  0  0  0  0  0  0
   -8.6137    3.0638    1.2928 C   0  0  0  0  0  0  0  0  0  0  0  0
   -8.7444    4.5895    1.3618 C   0  0  0  0  0  0  0  0  0  0  0  0
   -7.1724    2.5962    1.2208 C   0  0  0  0  0  0  0  0  0  0  0  0
   -6.2342    3.4321    1.3301 O   0  0  0  0  0  0  0  0  0  0  0  0
   -6.8395    1.2045    1.0918 N   0  0  0  0  0  0  0  0  0  0  0  0
   -7.7510    0.2040    0.6126 C   0  0  0  0  0  0  0  0  0  0  0  0
   -8.3731    0.3663   -0.6355 C   0  0  0  0  0  0  0  0  0  0  0  0
   -9.2520   -0.6080   -1.1283 C   0  0  0  0  0  0  0  0  0  0  0  0
   -9.8894   -0.4369   -2.4754 C   0  0  0  0  0  0  0  0  0  0  0  0
   -9.4684   -1.7775   -0.3884 C   0  0  0  0  0  0  0  0  0  0  0  0
   -8.8366   -1.9592    0.8435 C   0  0  0  0  0  0  0  0  0  0  0  0
   -7.9794   -0.9729    1.3575 C   0  0  0  0  0  0  0  0  0  0  0  0
   -7.3026   -1.1905    2.6829 C   0  0  0  0  0  0  0  0  0  0  0  0
   -8.8212    3.9470    4.8217 N   0  0  0  0  0  0  0  0  0  0  0  0
  -10.0314    4.7797    4.7558 C   0  0  0  0  0  0  0  0  0  0  0  0
   -9.7165    6.2311    4.5315 C   0  0  0  0  0  0  0  0  0  0  0  0
   -8.5408    6.6177    4.2965 O   0  0  0  0  0  0  0  0  0  0  0  0
  -10.7452    7.1628    4.5653 O   0  0  0  0  0  0  0  0  0  0  0  0
  1  3  4  0
  1 14  4  0
  1  2  1  0
  3  4  4  0
  4  5  4  0
  5  6  4  0
  5 22  1  0
  6  7  1  0
  6 14  4  0
  7  8  1  0
  8  9  4  0
  8 12  4  0
  9 10  4  0
 10 11  4  0
 11 12  4  0
 12 13  1  0
 13 14  1  0
 13 15  1  6
 15 16  4  0
 15 20  4  0
 16 17  4  0
 17 18  4  0
 17 21  1  0
 18 19  4  0
 19 20  4  0
 23 24  4  0
 24 25  4  0
 25 26  1  0
 26 27  1  0
 27 28  1  0
 27 29  1  0
 29 30  2  0
 29 31  1  0
 31 32  1  0
 32 33  4  0
 33 34  4  0
 34 35  1  0
 34 36  4  0
 36 37  4  0
 37 38  4  0
 38 39  1  0
 25 40  4  0
 40 41  1  0
 41 42  1  0
 42 43  2  0
 42 44  1  0
 38 32  4  0
  2 23  4  0
  2 40  4  0
M  CHG  1  44  -1
M  END
$$$$

     RDKit          3D

 32 37  0  0  0  0  0  0  0  0999 V2000
   -7.6410    4.9930    6.8080 C   0  0  0  0  0  0  0  0  0  1  0  0
   -7.7310    4.0530    5.7140 C   0  0  0  0  0  0  0  0  0  2  0  0
   -6.4520    5.6300    6.8680 N   0  0  0  0  0  0  0  0  0  0  0  0
   -6.2260    6.5240    7.8670 N   0  0  0  0  0  0  0  0  0  0  0  0
   -7.1930    6.7500    8.7820 C   0  0  0  0  0  0  0  0  0  0  0  0
   -8.4240    6.1170    8.7580 C   0  0  0  0  0  0  0  0  0  0  0  0
   -9.3950    6.3570    9.7450 N   0  0  0  0  0  0  0  0  0  0  0  0
  -10.5620    5.6840    9.7600 C   0  0  0  0  0  0  0  0  0  0  0  0
  -11.5770    5.6820   10.5960 N   0  0  0  0  0  0  0  0  0  0  0  0
  -12.4690    4.7490   10.1080 N   0  0  0  0  0  0  0  0  0  0  0  0
  -12.0160    4.1880    8.9920 N   0  0  0  0  0  0  0  0  0  0  0  0
  -10.8400    4.7900    8.7610 N   0  0  0  0  0  0  0  0  0  0  0  0
   -9.9950    4.4790    7.6090 C   0  0  0  0  0  0  0  0  0  0  0  0
   -8.6630    5.2070    7.7200 C   0  0  0  0  0  0  0  0  0  0  0  0
  -10.7490    4.8610    6.3730 C   0  0  0  0  0  0  0  0  0  0  0  0
  -11.0350    6.2020    6.1170 C   0  0  0  0  0  0  0  0  0  0  0  0
  -11.7370    6.5580    4.9650 C   0  0  0  0  0  0  0  0  0  0  0  0
  -12.1550    5.5730    4.0710 C   0  0  0  0  0  0  0  0  0  0  0  0
  -11.8700    4.2310    4.3270 C   0  0  0  0  0  0  0  0  0  0  0  0
  -11.1660    3.8760    5.4790 C   0  0  0  0  0  0  0  0  0  0  0  0
  -12.0160    7.8660    4.7150 O   0  0  0  0  0  0  0  0  0  0  0  0
   -6.8990    7.6510    9.7710 O   0  0  0  0  0  0  0  0  0  0  0  0
   -6.8385    3.0196    5.4167 C   0  0  0  0  0  0  0  0  0  0  0  0
   -7.0502    2.0732    4.4100 C   0  0  0  0  0  0  0  0  0  0  0  0
   -6.0818    1.1009    4.1165 C   0  0  0  0  0  0  0  0  0  0  0  0
   -6.3155    0.1640    3.1059 C   0  0  0  0  0  0  0  0  0  0  0  0
   -7.5131    0.1910    2.3856 C   0  0  0  0  0  0  0  0  0  0  0  0
   -8.4842    1.1553    2.6718 C   0  0  0  0  0  0  0  0  0  0  0  0
   -8.2615    2.1026    3.6840 C   0  0  0  0  0  0  0  0  0  0  0  0
   -9.2032    3.0468    3.9712 N   0  0  0  0  0  0  0  0  0  0  0  0
   -9.0079    3.9808    4.9446 C   0  0  0  0  0  0  0  0  0  0  0  0
   -9.9019    4.8432    5.1634 O   0  0  0  0  0  0  0  0  0  0  0  0
  1  3  4  0
  1 14  4  0
  1  2  1  0
  3  4  4  0
  4  5  4  0
  5  6  4  0
  5 22  1  0
  6  7  1  0
  6 14  4  0
  7  8  1  0
  8  9  4  0
  8 12  4  0
  9 10  4  0
 10 11  4  0
 11 12  4  0
 12 13  1  0
 13 14  1  0
 13 15  1  6
 15 16  4  0
 15 20  4  0
 16 17  4  0
 17 18  4  0
 17 21  1  0
 18 19  4  0
 19 20  4  0
 23 24  4  0
 24 25  4  0
 25 26  4  0
 26 27  4  0
 27 28  4  0
 28 29  4  0
 29 30  4  0
 30 31  4  0
 31 32  2  0
 29 24  4  0
  2 23  4  0
  2 31  4  0
M  END
$$$$

     RDKit          3D

 45 51  0  0  0  0  0  0  0  0999 V2000
   -7.6410    4.9930    6.8080 C   0  0  0  0  0  0  0  0  0  1  0  0
   -7.7310    4.0530    5.7140 C   0  0  0  0  0  0  0  0  0  2  0  0
   -6.4520    5.6300    6.8680 N   0  0  0  0  0  0  0  0  0  0  0  0
   -6.2260    6.5240    7.8670 N   0  0  0  0  0  0  0  0  0  0  0  0
   -7.1930    6.7500    8.7820 C   0  0  0  0  0  0  0  0  0  0  0  0
   -8.4240    6.1170    8.7580 C   0  0  0  0  0  0  0  0  0  0  0  0
   -9.3950    6.3570    9.7450 N   0  0  0  0  0  0  0  0  0  0  0  0
  -10.5620    5.6840    9.7600 C   0  0  0  0  0  0  0  0  0  0  0  0
  -11.5770    5.6820   10.5960 N   0  0  0  0  0  0  0  0  0  0  0  0
  -12.4690    4.7490   10.1080 N   0  0  0  0  0  0  0  0  0  0  0  0
  -12.0160    4.1880    8.9920 N   0  0  0  0  0  0  0  0  0  0  0  0
  -10.8400    4.7900    8.7610 N   0  0  0  0  0  0  0  0  0  0  0  0
   -9.9950    4.4790    7.6090 C   0  0  0  0  0  0  0  0  0  0  0  0
   -8.6630    5.2070    7.7200 C   0  0  0  0  0  0  0  0  0  0  0  0
  -10.7490    4.8610    6.3730 C   0  0  0  0  0  0  0  0  0  0  0  0
  -11.0350    6.2020    6.1170 C   0  0  0  0  0  0  0  0  0  0  0  0
  -11.7370    6.5580    4.9650 C   0  0  0  0  0  0  0  0  0  0  0  0
  -12.1550    5.5730    4.0710 C   0  0  0  0  0  0  0  0  0  0  0  0
  -11.8700    4.2310    4.3270 C   0  0  0  0  0  0  0  0  0  0  0  0
  -11.1660    3.8760    5.4790 C   0  0  0  0  0  0  0  0  0  0  0  0
  -12.0160    7.8660    4.7150 O   0  0  0  0  0  0  0  0  0  0  0  0
   -6.8990    7.6510    9.7710 O   0  0  0  0  0  0  0  0  0  0  0  0
   -6.8664    3.0592    5.4130 N   0  0  0  0  0  0  0  0  0  0  0  0
   -7.2863    2.4137    4.3352 N   0  0  0  0  0  0  0  0  0  0  0  0
   -8.4469    2.9844    3.9656 C   0  0  0  0  0  0  0  0  0  0  0  0
   -9.3571    2.4915    2.5015 S   0  0  0  0  0  0  0  0  0  0  0  0
  -10.3920    1.2966    3.4075 C   0  0  0  0  0  0  0  0  0  0  0  0
  -11.2138    0.5033    2.4337 C   0  0  0  0  0  0  0  0  0  0  0  0
  -12.4707    0.5865    2.4865 O   0  0  0  0  0  0  0  0  0  0  0  0
  -10.5929   -0.3176    1.4202 N   0  0  0  0  0  0  0  0  0  0  0  0
   -9.3233   -0.9984    1.7286 C   0  0  0  0  0  0  0  0  0  0  0  0
   -9.3866   -2.5184    1.6267 C   0  0  0  0  0  0  0  0  0  0  0  0
   -9.3546   -1.8592    2.9887 C   0  0  0  0  0  0  0  0  0  0  0  0
  -11.2019   -0.3472    0.0673 C   0  0  0  0  0  0  0  0  0  0  0  0
  -11.3785    1.0796   -0.4982 C   0  0  0  0  0  0  0  0  0  0  0  0
  -11.7097    0.9791   -1.9850 C   0  0  0  0  0  0  0  0  0  0  0  0
  -10.9038   -0.4897   -2.5421 S   0  0  0  0  0  0  0  0  0  0  0  0
  -11.8604   -1.4122   -3.2444 O   0  0  0  0  0  0  0  0  0  0  0  0
   -9.7236   -0.1764   -3.4187 O   0  0  0  0  0  0  0  0  0  0  0  0
  -10.3983   -1.1419   -0.9803 C   0  0  0  0  0  0  0  0  0  0  0  0
   -8.7990    3.9864    4.7974 N   0  0  0  0  0  0  0  0  0  0  0  0
   -9.8747    4.9641    4.6111 C   0  0  0  0  0  0  0  0  0  0  0  0
   -9.3329    6.2124    3.9906 C   0  0  0  0  0  0  0  0  0  0  0  0
   -9.3848    7.3053    4.6139 O   0  0  0  0  0  0  0  0  0  0  0  0
   -8.7680    6.1692    2.7222 O   0  0  0  0  0  0  0  0  0  0  0  0
  1  3  4  0
  1 14  4  0
  1  2  1  0
  3  4  4  0
  4  5  4  0
  5  6  4  0
  5 22  1  0
  6  7  1  0
  6 14  4  0
  7  8  1  0
  8  9  4  0
  8 12  4  0
  9 10  4  0
 10 11  4  0
 11 12  4  0
 12 13  1  0
 13 14  1  0
 13 15  1  6
 15 16  4  0
 15 20  4  0
 16 17  4  0
 17 18  4  0
 17 21  1  0
 18 19  4  0
 19 20  4  0
 23 24  4  0
 24 25  4  0
 25 26  1  0
 26 27  1  0
 27 28  1  0
 28 29  2  0
 28 30  1  0
 30 31  1  0
 31 32  1  0
 32 33  1  0
 30 34  1  0
 34 35  1  0
 35 36  1  0
 36 37  1  0
 37 38  2  0
 37 39  2  0
 37 40  1  0
 25 41  4  0
 41 42  1  0
 42 43  1  0
 43 44  2  0
 43 45  1  0
 33 31  1  0
 40 34  1  0
  2 23  4  0
  2 41  4  0
M  CHG  1  45  -1
M  END
$$$$

     RDKit          3D

 45 51  0  0  0  0  0  0  0  0999 V2000
   -7.6410    4.9930    6.8080 C   0  0  0  0  0  0  0  0  0  1  0  0
   -7.7310    4.0530    5.7140 C   0  0  0  0  0  0  0  0  0  2  0  0
   -6.4520    5.6300    6.8680 N   0  0  0  0  0  0  0  0  0  0  0  0
   -6.2260    6.5240    7.8670 N   0  0  0  0  0  0  0  0  0  0  0  0
   -7.1930    6.7500    8.7820 C   0  0  0  0  0  0  0  0  0  0  0  0
   -8.4240    6.1170    8.7580 C   0  0  0  0  0  0  0  0  0  0  0  0
   -9.3950    6.3570    9.7450 N   0  0  0  0  0  0  0  0  0  0  0  0
  -10.5620    5.6840    9.7600 C   0  0  0  0  0  0  0  0  0  0  0  0
  -11.5770    5.6820   10.5960 N   0  0  0  0  0  0  0  0  0  0  0  0
  -12.4690    4.7490   10.1080 N   0  0  0  0  0  0  0  0  0  0  0  0
  -12.0160    4.1880    8.9920 N   0  0  0  0  0  0  0  0  0  0  0  0
  -10.8400    4.7900    8.7610 N   0  0  0  0  0  0  0  0  0  0  0  0
   -9.9950    4.4790    7.6090 C   0  0  0  0  0  0  0  0  0  0  0  0
   -8.6630    5.2070    7.7200 C   0  0  0  0  0  0  0  0  0  0  0  0
  -10.7490    4.8610    6.3730 C   0  0  0  0  0  0  0  0  0  0  0  0
  -11.0350    6.2020    6.1170 C   0  0  0  0  0  0  0  0  0  0  0  0
  -11.7370    6.5580    4.9650 C   0  0  0  0  0  0  0  0  0  0  0  0
  -12.1550    5.5730    4.0710 C   0  0  0  0  0  0  0  0  0  0  0  0
  -11.8700    4.2310    4.3270 C   0  0  0  0  0  0  0  0  0  0  0  0
  -11.1660    3.8760    5.4790 C   0  0  0  0  0  0  0  0  0  0  0  0
  -12.0160    7.8660    4.7150 O   0  0  0  0  0  0  0  0  0  0  0  0
   -6.8990    7.6510    9.7710 O   0  0  0  0  0  0  0  0  0  0  0  0
   -6.8693    3.0535    5.4204 N   0  0  0  0  0  0  0  0  0  0  0  0
   -7.3130    2.3716    4.3748 N   0  0  0  0  0  0  0  0  0  0  0  0
   -8.4872    2.9234    4.0187 C   0  0  0  0  0  0  0  0  0  0  0  0
   -9.4310    2.3843    2.5922 S   0  0  0  0  0  0  0  0  0  0  0  0
  -10.4125    1.1783    3.5529 C   0  0  0  0  0  0  0  0  0  0  0  0
  -11.2243    0.2704    2.6626 C   0  0  0  0  0  0  0  0  0  0  0  0
  -11.1153    0.3474    1.4083 O   0  0  0  0  0  0  0  0  0  0  0  0
  -12.0657   -0.7486    3.2380 N   0  0  0  0  0  0  0  0  0  0  0  0
  -12.8289   -0.4453    4.4589 C   0  0  0  0  0  0  0  0  0  0  0  0
  -13.6613    0.8339    4.3931 C   0  0  0  0  0  0  0  0  0  0  0  0
  -14.3414   -0.5153    4.2759 C   0  0  0  0  0  0  0  0  0  0  0  0
  -12.0067   -2.1117    2.6600 C   0  0  0  0  0  0  0  0  0  0  0  0
  -12.8529   -3.1676    3.4157 C   0  0  0  0  0  0  0  0  0  0  0  0
  -12.4117   -4.5556    2.9597 C   0  0  0  0  0  0  0  0  0  0  0  0
  -10.6938   -4.3924    2.5839 S   0  0  0  0  0  0  0  0  0  0  0  0
  -10.3745   -4.9369    1.2179 O   0  0  0  0  0  0  0  0  0  0  0  0
   -9.8327   -5.0399    3.6327 O   0  0  0  0  0  0  0  0  0  0  0  0
  -10.5608   -2.6308    2.6324 C   0  0  0  0  0  0  0  0  0  0  0  0
   -8.8245    3.9496    4.8277 N   0  0  0  0  0  0  0  0  0  0  0  0
   -9.9247    4.8988    4.6383 C   0  0  0  0  0  0  0  0  0  0  0  0
   -9.5404    5.9415    3.6366 C   0  0  0  0  0  0  0  0  0  0  0  0
   -8.5685    6.7104    3.8623 O   0  0  0  0  0  0  0  0  0  0  0  0
  -10.2458    6.0597    2.4469 O   0  0  0  0  0  0  0  0  0  0  0  0
  1  3  4  0
  1 14  4  0
  1  2  1  0
  3  4  4  0
  4  5  4  0
  5  6  4  0
  5 22  1  0
  6  7  1  0
  6 14  4  0
  7  8  1  0
  8  9  4  0
  8 12  4  0
  9 10  4  0
 10 11  4  0
 11 12  4  0
 12 13  1  0
 13 14  1  0
 13 15  1  6
 15 16  4  0
 15 20  4  0
 16 17  4  0
 17 18  4  0
 17 21  1  0
 18 19  4  0
 19 20  4  0
 23 24  4  0
 24 25  4  0
 25 26  1  0
 26 27  1  0
 27 28  1  0
 28 29  2  0
 28 30  1  0
 30 31  1  0
 31 32  1  0
 32 33  1  0
 30 34  1  0
 34 35  1  0
 35 36  1  0
 36 37  1  0
 37 38  2  0
 37 39  2  0
 37 40  1  0
 25 41  4  0
 41 42  1  0
 42 43  1  0
 43 44  2  0
 43 45  1  0
 33 31  1  0
 40 34  1  0
  2 23  4  0
  2 41  4  0
M  CHG  1  45  -1
M  END
$$$$

     RDKit          3D

 45 51  0  0  0  0  0  0  0  0999 V2000
   -7.6410    4.9930    6.8080 C   0  0  0  0  0  0  0  0  0  1  0  0
   -7.7310    4.0530    5.7140 C   0  0  0  0  0  0  0  0  0  2  0  0
   -6.4520    5.6300    6.8680 N   0  0  0  0  0  0  0  0  0  0  0  0
   -6.2260    6.5240    7.8670 N   0  0  0  0  0  0  0  0  0  0  0  0
   -7.1930    6.7500    8.7820 C   0  0  0  0  0  0  0  0  0  0  0  0
   -8.4240    6.1170    8.7580 C   0  0  0  0  0  0  0  0  0  0  0  0
   -9.3950    6.3570    9.7450 N   0  0  0  0  0  0  0  0  0  0  0  0
  -10.5620    5.6840    9.7600 C   0  0  0  0  0  0  0  0  0  0  0  0
  -11.5770    5.6820   10.5960 N   0  0  0  0  0  0  0  0  0  0  0  0
  -12.4690    4.7490   10.1080 N   0  0  0  0  0  0  0  0  0  0  0  0
  -12.0160    4.1880    8.9920 N   0  0  0  0  0  0  0  0  0  0  0  0
  -10.8400    4.7900    8.7610 N   0  0  0  0  0  0  0  0  0  0  0  0
   -9.9950    4.4790    7.6090 C   0  0  0  0  0  0  0  0  0  0  0  0
   -8.6630    5.2070    7.7200 C   0  0  0  0  0  0  0  0  0  0  0  0
  -10.7490    4.8610    6.3730 C   0  0  0  0  0  0  0  0  0  0  0  0
  -11.0350    6.2020    6.1170 C   0  0  0  0  0  0  0  0  0  0  0  0
  -11.7370    6.5580    4.9650 C   0  0  0  0  0  0  0  0  0  0  0  0
  -12.1550    5.5730    4.0710 C   0  0  0  0  0  0  0  0  0  0  0  0
  -11.8700    4.2310    4.3270 C   0  0  0  0  0  0  0  0  0  0  0  0
  -11.1660    3.8760    5.4790 C   0  0  0  0  0  0  0  0  0  0  0  0
  -12.0160    7.8660    4.7150 O   0  0  0  0  0  0  0  0  0  0  0  0
   -6.8990    7.6510    9.7710 O   0  0  0  0  0  0  0  0  0  0  0  0
   -6.8909    3.0291    5.4432 N   0  0  0  0  0  0  0  0  0  0  0  0
   -7.3175    2.3731    4.3753 N   0  0  0  0  0  0  0  0  0  0  0  0
   -8.4574    2.9685    3.9797 C   0  0  0  0  0  0  0  0  0  0  0  0
   -9.3747    2.4563    2.5259 S   0  0  0  0  0  0  0  0  0  0  0  0
   -8.3598    3.4505    1.3840 C   0  0  0  0  0  0  0  0  0  0  0  0
   -8.6717    3.0723   -0.0368 C   0  0  0  0  0  0  0  0  0  0  0  0
   -9.8111    3.3569   -0.4955 O   0  0  0  0  0  0  0  0  0  0  0  0
   -7.6924    2.4390   -0.8934 N   0  0  0  0  0  0  0  0  0  0  0  0
   -6.5948    1.6601   -0.2924 C   0  0  0  0  0  0  0  0  0  0  0  0
   -7.0575    0.5392    0.6334 C   0  0  0  0  0  0  0  0  0  0  0  0
   -6.5185    0.2064   -0.7426 C   0  0  0  0  0  0  0  0  0  0  0  0
   -7.6865    2.8183   -2.3251 C   0  0  0  0  0  0  0  0  0  0  0  0
   -6.3218    2.6501   -3.0326 C   0  0  0  0  0  0  0  0  0  0  0  0
   -6.5573    2.7644   -4.5350 C   0  0  0  0  0  0  0  0  0  0  0  0
   -8.1689    2.0858   -4.7965 S   0  0  0  0  0  0  0  0  0  0  0  0
   -8.0976    0.7075   -5.3930 O   0  0  0  0  0  0  0  0  0  0  0  0
   -9.0183    2.9899   -5.6445 O   0  0  0  0  0  0  0  0  0  0  0  0
   -8.7376    2.0391   -3.1222 C   0  0  0  0  0  0  0  0  0  0  0  0
   -8.7889    3.9975    4.7858 N   0  0  0  0  0  0  0  0  0  0  0  0
   -9.8589    4.9818    4.5894 C   0  0  0  0  0  0  0  0  0  0  0  0
   -9.3508    6.2296    3.9294 C   0  0  0  0  0  0  0  0  0  0  0  0
   -8.1362    6.3554    3.6199 O   0  0  0  0  0  0  0  0  0  0  0  0
  -10.2350    7.2637    3.6540 O   0  0  0  0  0  0  0  0  0  0  0  0
  1  3  4  0
  1 14  4  0
  1  2  1  0
  3  4  4  0
  4  5  4  0
  5  6  4  0
  5 22  1  0
  6  7  1  0
  6 14  4  0
  7  8  1  0
  8  9  4  0
  8 12  4  0
  9 10  4  0
 10 11  4  0
 11 12  4  0
 12 13  1  0
 13 14  1  0
 13 15  1  6
 15 16  4  0
 15 20  4  0
 16 17  4  0
 17 18  4  0
 17 21  1  0
 18 19  4  0
 19 20  4  0
 23 24  4  0
 24 25  4  0
 25 26  1  0
 26 27  1  0
 27 28  1  0
 28 29  2  0
 28 30  1  0
 30 31  1  0
 31 32  1  0
 32 33  1  0
 30 34  1  0
 34 35  1  0
 35 36  1  0
 36 37  1  0
 37 38  2  0
 37 39  2  0
 37 40  1  0
 25 41  4  0
 41 42  1  0
 42 43  1  0
 43 44  2  0
 43 45  1  0
 33 31  1  0
 40 34  1  0
  2 23  4  0
  2 41  4  0
M  CHG  1  45  -1
M  END
$$$$

     RDKit          3D

 38 43  0  0  0  0  0  0  0  0999 V2000
   -7.6410    4.9930    6.8080 C   0  0  0  0  0  0  0  0  0  1  0  0
   -7.7310    4.0530    5.7140 C   0  0  0  0  0  0  0  0  0  2  0  0
   -6.4520    5.6300    6.8680 N   0  0  0  0  0  0  0  0  0  0  0  0
   -6.2260    6.5240    7.8670 N   0  0  0  0  0  0  0  0  0  0  0  0
   -7.1930    6.7500    8.7820 C   0  0  0  0  0  0  0  0  0  0  0  0
   -8.4240    6.1170    8.7580 C   0  0  0  0  0  0  0  0  0  0  0  0
   -9.3950    6.3570    9.7450 N   0  0  0  0  0  0  0  0  0  0  0  0
  -10.5620    5.6840    9.7600 C   0  0  0  0  0  0  0  0  0  0  0  0
  -11.5770    5.6820   10.5960 N   0  0  0  0  0  0  0  0  0  0  0  0
  -12.4690    4.7490   10.1080 N   0  0  0  0  0  0  0  0  0  0  0  0
  -12.0160    4.1880    8.9920 N   0  0  0  0  0  0  0  0  0  0  0  0
  -10.8400    4.7900    8.7610 N   0  0  0  0  0  0  0  0  0  0  0  0
   -9.9950    4.4790    7.6090 C   0  0  0  0  0  0  0  0  0  0  0  0
   -8.6630    5.2070    7.7200 C   0  0  0  0  0  0  0  0  0  0  0  0
  -10.7490    4.8610    6.3730 C   0  0  0  0  0  0  0  0  0  0  0  0
  -11.0350    6.2020    6.1170 C   0  0  0  0  0  0  0  0  0  0  0  0
  -11.7370    6.5580    4.9650 C   0  0  0  0  0  0  0  0  0  0  0  0
  -12.1550    5.5730    4.0710 C   0  0  0  0  0  0  0  0  0  0  0  0
  -11.8700    4.2310    4.3270 C   0  0  0  0  0  0  0  0  0  0  0  0
  -11.1660    3.8760    5.4790 C   0  0  0  0  0  0  0  0  0  0  0  0
  -12.0160    7.8660    4.7150 O   0  0  0  0  0  0  0  0  0  0  0  0
   -6.8990    7.6510    9.7710 O   0  0  0  0  0  0  0  0  0  0  0  0
   -6.8516    3.0725    5.4080 N   0  0  0  0  0  0  0  0  0  0  0  0
   -7.2893    2.4246    4.3409 N   0  0  0  0  0  0  0  0  0  0  0  0
   -6.5280    1.3816    3.6545 C   0  0  0  0  0  0  0  0  0  0  0  0
   -6.0313    1.8815    2.3580 N   0  0  0  0  0  0  0  0  0  0  0  0
   -5.4703    0.7717    1.5668 C   0  0  0  0  0  0  0  0  0  0  0  0
   -4.9087    1.3099    0.2453 C   0  0  0  0  0  0  0  0  0  0  0  0
   -3.9084    2.2811    0.4850 O   0  0  0  0  0  0  0  0  0  0  0  0
   -4.4645    3.3755    1.1883 C   0  0  0  0  0  0  0  0  0  0  0  0
   -5.0066    2.9263    2.5502 C   0  0  0  0  0  0  0  0  0  0  0  0
   -8.4618    2.9739    3.9654 C   0  0  0  0  0  0  0  0  0  0  0  0
   -9.3052    2.5308    2.6255 S   0  0  0  0  0  0  0  0  0  0  0  0
   -8.8073    3.9817    4.7980 N   0  0  0  0  0  0  0  0  0  0  0  0
   -9.8943    4.9577    4.6299 C   0  0  0  0  0  0  0  0  0  0  0  0
   -9.3656    6.3079    4.1009 C   0  0  0  0  0  0  0  0  0  0  0  0
  -10.5003    7.3377    4.0541 C   0  0  0  0  0  0  0  0  0  0  0  0
   -8.7270    6.1610    2.7130 C   0  0  0  0  0  0  0  0  0  0  0  0
  1  3  4  0
  1 14  4  0
  1  2  1  0
  3  4  4  0
  4  5  4  0
  5  6  4  0
  5 22  1  0
  6  7  1  0
  6 14  4  0
  7  8  1  0
  8  9  4  0
  8 12  4  0
  9 10  4  0
 10 11  4  0
 11 12  4  0
 12 13  1  0
 13 14  1  0
 13 15  1  6
 15 16  4  0
 15 20  4  0
 16 17  4  0
 17 18  4  0
 17 21  1  0
 18 19  4  0
 19 20  4  0
 23 24  4  0
 24 25  1  0
 25 26  1  0
 26 27  1  0
 27 28  1  0
 28 29  1  0
 29 30  1  0
 30 31  1  0
 24 32  4  0
 32 33  2  0
 32 34  4  0
 34 35  1  0
 35 36  1  0
 36 37  1  0
 36 38  1  0
 31 26  1  0
  2 23  4  0
  2 34  4  0
M  END
$$$$

     RDKit          3D

 38 43  0  0  0  0  0  0  0  0999 V2000
   -7.6410    4.9930    6.8080 C   0  0  0  0  0  0  0  0  0  1  0  0
   -7.7310    4.0530    5.7140 C   0  0  0  0  0  0  0  0  0  2  0  0
   -6.4520    5.6300    6.8680 N   0  0  0  0  0  0  0  0  0  0  0  0
   -6.2260    6.5240    7.8670 N   0  0  0  0  0  0  0  0  0  0  0  0
   -7.1930    6.7500    8.7820 C   0  0  0  0  0  0  0  0  0  0  0  0
   -8.4240    6.1170    8.7580 C   0  0  0  0  0  0  0  0  0  0  0  0
   -9.3950    6.3570    9.7450 N   0  0  0  0  0  0  0  0  0  0  0  0
  -10.5620    5.6840    9.7600 C   0  0  0  0  0  0  0  0  0  0  0  0
  -11.5770    5.6820   10.5960 N   0  0  0  0  0  0  0  0  0  0  0  0
  -12.4690    4.7490   10.1080 N   0  0  0  0  0  0  0  0  0  0  0  0
  -12.0160    4.1880    8.9920 N   0  0  0  0  0  0  0  0  0  0  0  0
  -10.8400    4.7900    8.7610 N   0  0  0  0  0  0  0  0  0  0  0  0
   -9.9950    4.4790    7.6090 C   0  0  0  0  0  0  0  0  0  0  0  0
   -8.6630    5.2070    7.7200 C   0  0  0  0  0  0  0  0  0  0  0  0
  -10.7490    4.8610    6.3730 C   0  0  0  0  0  0  0  0  0  0  0  0
  -11.0350    6.2020    6.1170 C   0  0  0  0  0  0  0  0  0  0  0  0
  -11.7370    6.5580    4.9650 C   0  0  0  0  0  0  0  0  0  0  0  0
  -12.1550    5.5730    4.0710 C   0  0  0  0  0  0  0  0  0  0  0  0
  -11.8700    4.2310    4.3270 C   0  0  0  0  0  0  0  0  0  0  0  0
  -11.1660    3.8760    5.4790 C   0  0  0  0  0  0  0  0  0  0  0  0
  -12.0160    7.8660    4.7150 O   0  0  0  0  0  0  0  0  0  0  0  0
   -6.8990    7.6510    9.7710 O   0  0  0  0  0  0  0  0  0  0  0  0
   -6.8666    3.0522    5.4273 N   0  0  0  0  0  0  0  0  0  0  0  0
   -7.3079    2.3995    4.3645 N   0  0  0  0  0  0  0  0  0  0  0  0
   -6.6062    1.2724    3.7516 C   0  0  0  0  0  0  0  0  0  0  0  0
   -7.3980    0.0331    3.9045 N   0  0  0  0  0  0  0  0  0  0  0  0
   -7.4664   -0.4345    5.3061 C   0  0  0  0  0  0  0  0  0  0  0  0
   -6.1796   -1.1600    5.7372 C   0  0  0  0  0  0  0  0  0  0  0  0
   -5.8792   -2.2237    4.8570 O   0  0  0  0  0  0  0  0  0  0  0  0
   -5.6548   -1.7153    3.5582 C   0  0  0  0  0  0  0  0  0  0  0  0
   -6.9248   -1.0447    3.0127 C   0  0  0  0  0  0  0  0  0  0  0  0
   -8.4717    2.9597    3.9783 C   0  0  0  0  0  0  0  0  0  0  0  0
   -9.3327    2.4916    2.6584 S   0  0  0  0  0  0  0  0  0  0  0  0
   -8.8052    3.9834    4.7959 N   0  0  0  0  0  0  0  0  0  0  0  0
   -9.9001    4.9517    4.6333 C   0  0  0  0  0  0  0  0  0  0  0  0
   -9.3839    6.3045    4.1003 C   0  0  0  0  0  0  0  0  0  0  0  0
  -10.5201    7.3335    4.0809 C   0  0  0  0  0  0  0  0  0  0  0  0
   -8.7752    6.1622    2.6990 C   0  0  0  0  0  0  0  0  0  0  0  0
  1  3  4  0
  1 14  4  0
  1  2  1  0
  3  4  4  0
  4  5  4  0
  5  6  4  0
  5 22  1  0
  6  7  1  0
  6 14  4  0
  7  8  1  0
  8  9  4  0
  8 12  4  0
  9 10  4  0
 10 11  4  0
 11 12  4  0
 12 13  1  0
 13 14  1  0
 13 15  1  6
 15 16  4  0
 15 20  4  0
 16 17  4  0
 17 18  4  0
 17 21  1  0
 18 19  4  0
 19 20  4  0
 23 24  4  0
 24 25  1  0
 25 26  1  0
 26 27  1  0
 27 28  1  0
 28 29  1  0
 29 30  1  0
 30 31  1  0
 24 32  4  0
 32 33  2  0
 32 34  4  0
 34 35  1  0
 35 36  1  0
 36 37  1  0
 36 38  1  0
 31 26  1  0
  2 23  4  0
  2 34  4  0
M  END
$$$$

     RDKit          3D

 28 32  0  0  0  0  0  0  0  0999 V2000
   -7.6410    4.9930    6.8080 C   0  0  0  0  0  0  0  0  0  1  0  0
   -7.7310    4.0530    5.7140 C   0  0  0  0  0  0  0  0  0  2  0  0
   -6.4520    5.6300    6.8680 N   0  0  0  0  0  0  0  0  0  0  0  0
   -6.2260    6.5240    7.8670 N   0  0  0  0  0  0  0  0  0  0  0  0
   -7.1930    6.7500    8.7820 C   0  0  0  0  0  0  0  0  0  0  0  0
   -8.4240    6.1170    8.7580 C   0  0  0  0  0  0  0  0  0  0  0  0
   -9.3950    6.3570    9.7450 N   0  0  0  0  0  0  0  0  0  0  0  0
  -10.5620    5.6840    9.7600 C   0  0  0  0  0  0  0  0  0  0  0  0
  -11.5770    5.6820   10.5960 N   0  0  0  0  0  0  0  0  0  0  0  0
  -12.4690    4.7490   10.1080 N   0  0  0  0  0  0  0  0  0  0  0  0
  -12.0160    4.1880    8.9920 N   0  0  0  0  0  0  0  0  0  0  0  0
  -10.8400    4.7900    8.7610 N   0  0  0  0  0  0  0  0  0  0  0  0
   -9.9950    4.4790    7.6090 C   0  0  0  0  0  0  0  0  0  0  0  0
   -8.6630    5.2070    7.7200 C   0  0  0  0  0  0  0  0  0  0  0  0
  -10.7490    4.8610    6.3730 C   0  0  0  0  0  0  0  0  0  0  0  0
  -11.0350    6.2020    6.1170 C   0  0  0  0  0  0  0  0  0  0  0  0
  -11.7370    6.5580    4.9650 C   0  0  0  0  0  0  0  0  0  0  0  0
  -12.1550    5.5730    4.0710 C   0  0  0  0  0  0  0  0  0  0  0  0
  -11.8700    4.2310    4.3270 C   0  0  0  0  0  0  0  0  0  0  0  0
  -11.1660    3.8760    5.4790 C   0  0  0  0  0  0  0  0  0  0  0  0
  -12.0160    7.8660    4.7150 O   0  0  0  0  0  0  0  0  0  0  0  0
   -6.8990    7.6510    9.7710 O   0  0  0  0  0  0  0  0  0  0  0  0
   -6.9326    2.9118    5.5218 C   0  0  0  0  0  0  0  0  0  0  0  0
   -7.1618    1.9678    4.5200 C   0  0  0  0  0  0  0  0  0  0  0  0
   -8.2451    2.0840    3.7091 N   0  0  0  0  0  0  0  0  0  0  0  0
   -9.1289    3.1077    3.8424 C   0  0  0  0  0  0  0  0  0  0  0  0
   -8.9406    4.0790    4.8317 C   0  0  0  0  0  0  0  0  0  0  0  0
  -10.0812    5.4165    4.9317 Cl  0  0  0  0  0  0  0  0  0  0  0  0
  1  3  4  0
  1 14  4  0
  1  2  1  0
  3  4  4  0
  4  5  4  0
  5  6  4  0
  5 22  1  0
  6  7  1  0
  6 14  4  0
  7  8  1  0
  8  9  4  0
  8 12  4  0
  9 10  4  0
 10 11  4  0
 11 12  4  0
 12 13  1  0
 13 14  1  0
 13 15  1  6
 15 16  4  0
 15 20  4  0
 16 17  4  0
 17 18  4  0
 17 21  1  0
 18 19  4  0
 19 20  4  0
 23 24  4  0
 24 25  4  0
 25 26  4  0
 26 27  4  0
 27 28  1  0
  2 23  4  0
  2 27  4  0
M  END
$$$$

     RDKit          3D

 39 44  0  0  0  0  0  0  0  0999 V2000
   -7.6410    4.9930    6.8080 C   0  0  0  0  0  0  0  0  0  1  0  0
   -7.7310    4.0530    5.7140 C   0  0  0  0  0  0  0  0  0  2  0  0
   -6.4520    5.6300    6.8680 N   0  0  0  0  0  0  0  0  0  0  0  0
   -6.2260    6.5240    7.8670 N   0  0  0  0  0  0  0  0  0  0  0  0
   -7.1930    6.7500    8.7820 C   0  0  0  0  0  0  0  0  0  0  0  0
   -8.4240    6.1170    8.7580 C   0  0  0  0  0  0  0  0  0  0  0  0
   -9.3950    6.3570    9.7450 N   0  0  0  0  0  0  0  0  0  0  0  0
  -10.5620    5.6840    9.7600 C   0  0  0  0  0  0  0  0  0  0  0  0
  -11.5770    5.6820   10.5960 N   0  0  0  0  0  0  0  0  0  0  0  0
  -12.4690    4.7490   10.1080 N   0  0  0  0  0  0  0  0  0  0  0  0
  -12.0160    4.1880    8.9920 N   0  0  0  0  0  0  0  0  0  0  0  0
  -10.8400    4.7900    8.7610 N   0  0  0  0  0  0  0  0  0  0  0  0
   -9.9950    4.4790    7.6090 C   0  0  0  0  0  0  0  0  0  0  0  0
   -8.6630    5.2070    7.7200 C   0  0  0  0  0  0  0  0  0  0  0  0
  -10.7490    4.8610    6.3730 C   0  0  0  0  0  0  0  0  0  0  0  0
  -11.0350    6.2020    6.1170 C   0  0  0  0  0  0  0  0  0  0  0  0
  -11.7370    6.5580    4.9650 C   0  0  0  0  0  0  0  0  0  0  0  0
  -12.1550    5.5730    4.0710 C   0  0  0  0  0  0  0  0  0  0  0  0
  -11.8700    4.2310    4.3270 C   0  0  0  0  0  0  0  0  0  0  0  0
  -11.1660    3.8760    5.4790 C   0  0  0  0  0  0  0  0  0  0  0  0
  -12.0160    7.8660    4.7150 O   0  0  0  0  0  0  0  0  0  0  0  0
   -6.8990    7.6510    9.7710 O   0  0  0  0  0  0  0  0  0  0  0  0
   -6.8856    2.9506    5.5027 C   0  0  0  0  0  0  0  0  0  0  0  0
   -7.3980    1.9908    4.2094 S   0  0  0  0  0  0  0  0  0  0  0  0
   -8.7502    2.9188    3.8788 C   0  0  0  0  0  0  0  0  0  0  0  0
   -9.6554    2.6992    2.9016 N   0  0  0  0  0  0  0  0  0  0  0  0
  -10.6836    3.5748    2.7430 C   0  0  0  0  0  0  0  0  0  0  0  0
  -10.7884    4.6927    3.5376 N   0  0  0  0  0  0  0  0  0  0  0  0
  -11.9035    5.6298    3.3107 C   0  0  0  0  0  0  0  0  0  0  0  0
  -11.4188    7.0221    2.9820 C   0  0  0  0  0  0  0  0  0  0  0  0
  -11.6100    7.9377    3.8270 O   0  0  0  0  0  0  0  0  0  0  0  0
  -10.7972    7.3602    1.7298 N   0  0  0  0  0  0  0  0  0  0  0  0
  -10.3297    6.3959    0.7339 C   0  0  0  0  0  0  0  0  0  0  0  0
   -8.8652    5.9925    1.0020 C   0  0  0  0  0  0  0  0  0  0  0  0
   -8.4475    4.8489    0.0707 C   0  0  0  0  0  0  0  0  0  0  0  0
   -7.9148    7.1855    0.8321 C   0  0  0  0  0  0  0  0  0  0  0  0
   -9.8854    4.9026    4.5583 C   0  0  0  0  0  0  0  0  0  0  0  0
   -9.9851    5.9174    5.3001 O   0  0  0  0  0  0  0  0  0  0  0  0
   -8.8388    3.9868    4.7456 C   0  0  0  0  0  0  0  0  0  0  0  0
  1  3  4  0
  1 14  4  0
  1  2  1  0
  3  4  4  0
  4  5  4  0
  5  6  4  0
  5 22  1  0
  6  7  1  0
  6 14  4  0
  7  8  1  0
  8  9  4  0
  8 12  4  0
  9 10  4  0
 10 11  4  0
 11 12  4  0
 12 13  1  0
 13 14  1  0
 13 15  1  6
 15 16  4  0
 15 20  4  0
 16 17  4  0
 17 18  4  0
 17 21  1  0
 18 19  4  0
 19 20  4  0
 23 24  4  0
 24 25  4  0
 25 26  4  0
 26 27  4  0
 27 28  4  0
 28 29  1  0
 29 30  1  0
 30 31  2  0
 30 32  1  0
 32 33  1  0
 33 34  1  0
 34 35  1  0
 34 36  1  0
 28 37  4  0
 37 38  2  0
 37 39  4  0
 39 25  4  0
  2 23  4  0
  2 39  4  0
M  END
$$$$

     RDKit          3D

 40 45  0  0  0  0  0  0  0  0999 V2000
   -7.6410    4.9930    6.8080 C   0  0  0  0  0  0  0  0  0  1  0  0
   -7.7310    4.0530    5.7140 C   0  0  0  0  0  0  0  0  0  2  0  0
   -6.4520    5.6300    6.8680 N   0  0  0  0  0  0  0  0  0  0  0  0
   -6.2260    6.5240    7.8670 N   0  0  0  0  0  0  0  0  0  0  0  0
   -7.1930    6.7500    8.7820 C   0  0  0  0  0  0  0  0  0  0  0  0
   -8.4240    6.1170    8.7580 C   0  0  0  0  0  0  0  0  0  0  0  0
   -9.3950    6.3570    9.7450 N   0  0  0  0  0  0  0  0  0  0  0  0
  -10.5620    5.6840    9.7600 C   0  0  0  0  0  0  0  0  0  0  0  0
  -11.5770    5.6820   10.5960 N   0  0  0  0  0  0  0  0  0  0  0  0
  -12.4690    4.7490   10.1080 N   0  0  0  0  0  0  0  0  0  0  0  0
  -12.0160    4.1880    8.9920 N   0  0  0  0  0  0  0  0  0  0  0  0
  -10.8400    4.7900    8.7610 N   0  0  0  0  0  0  0  0  0  0  0  0
   -9.9950    4.4790    7.6090 C   0  0  0  0  0  0  0  0  0  0  0  0
   -8.6630    5.2070    7.7200 C   0  0  0  0  0  0  0  0  0  0  0  0
  -10.7490    4.8610    6.3730 C   0  0  0  0  0  0  0  0  0  0  0  0
  -11.0350    6.2020    6.1170 C   0  0  0  0  0  0  0  0  0  0  0  0
  -11.7370    6.5580    4.9650 C   0  0  0  0  0  0  0  0  0  0  0  0
  -12.1550    5.5730    4.0710 C   0  0  0  0  0  0  0  0  0  0  0  0
  -11.8700    4.2310    4.3270 C   0  0  0  0  0  0  0  0  0  0  0  0
  -11.1660    3.8760    5.4790 C   0  0  0  0  0  0  0  0  0  0  0  0
  -12.0160    7.8660    4.7150 O   0  0  0  0  0  0  0  0  0  0  0  0
   -6.8990    7.6510    9.7710 O   0  0  0  0  0  0  0  0  0  0  0  0
   -6.7945    3.0601    5.3646 C   0  0  0  0  0  0  0  0  0  0  0  0
   -7.1432    2.2165    4.3145 C   0  0  0  0  0  0  0  0  0  0  0  0
   -6.3086    1.1265    3.7771 C   0  0  0  0  0  0  0  0  0  0  0  0
   -5.1627    0.9310    4.2670 O   0  0  0  0  0  0  0  0  0  0  0  0
   -6.7901    0.2888    2.7130 N   0  0  0  0  0  0  0  0  0  0  0  0
   -5.9694   -0.7579    2.0976 C   0  0  0  0  0  0  0  0  0  0  0  0
   -6.8338   -1.9962    1.8131 C   0  0  0  0  0  0  0  0  0  0  0  0
   -6.0181   -3.0970    1.1207 C   0  0  0  0  0  0  0  0  0  0  0  0
   -5.3098   -2.6085   -0.1652 C   0  0  0  0  0  0  0  0  0  0  0  0
   -6.2566   -2.5111   -1.3851 C   0  0  0  0  0  0  0  0  0  0  0  0
   -7.2405   -1.5589   -1.1994 F   0  0  0  0  0  0  0  0  0  0  0  0
   -5.5310   -2.1802   -2.5164 F   0  0  0  0  0  0  0  0  0  0  0  0
   -6.8630   -3.7356   -1.6077 F   0  0  0  0  0  0  0  0  0  0  0  0
   -4.5131   -1.3072    0.0950 C   0  0  0  0  0  0  0  0  0  0  0  0
   -5.3395   -0.2235    0.8029 C   0  0  0  0  0  0  0  0  0  0  0  0
   -8.6782    2.6458    3.7748 S   0  0  0  0  0  0  0  0  0  0  0  0
   -8.9133    3.9089    4.8598 C   0  0  0  0  0  0  0  0  0  0  0  0
  -10.1408    4.7630    4.8939 C   0  0  0  0  0  0  0  0  0  0  0  0
  1  3  4  0
  1 14  4  0
  1  2  1  0
  3  4  4  0
  4  5  4  0
  5  6  4  0
  5 22  1  0
  6  7  1  0
  6 14  4  0
  7  8  1  0
  8  9  4  0
  8 12  4  0
  9 10  4  0
 10 11  4  0
 11 12  4  0
 12 13  1  0
 13 14  1  0
 13 15  1  6
 15 16  4  0
 15 20  4  0
 16 17  4  0
 17 18  4  0
 17 21  1  0
 18 19  4  0
 19 20  4  0
 23 24  4  0
 24 25  1  0
 25 26  2  0
 25 27  1  0
 27 28  1  0
 28 29  1  0
 29 30  1  0
 30 31  1  0
 31 32  1  0
 32 33  1  0
 32 34  1  0
 32 35  1  0
 31 36  1  0
 36 37  1  0
 24 38  4  0
 38 39  4  0
 39 40  1  0
 37 28  1  0
  2 23  4  0
  2 39  4  0
M  END
$$$$

     RDKit          3D

 40 45  0  0  0  0  0  0  0  0999 V2000
   -7.6410    4.9930    6.8080 C   0  0  0  0  0  0  0  0  0  1  0  0
   -7.7310    4.0530    5.7140 C   0  0  0  0  0  0  0  0  0  2  0  0
   -6.4520    5.6300    6.8680 N   0  0  0  0  0  0  0  0  0  0  0  0
   -6.2260    6.5240    7.8670 N   0  0  0  0  0  0  0  0  0  0  0  0
   -7.1930    6.7500    8.7820 C   0  0  0  0  0  0  0  0  0  0  0  0
   -8.4240    6.1170    8.7580 C   0  0  0  0  0  0  0  0  0  0  0  0
   -9.3950    6.3570    9.7450 N   0  0  0  0  0  0  0  0  0  0  0  0
  -10.5620    5.6840    9.7600 C   0  0  0  0  0  0  0  0  0  0  0  0
  -11.5770    5.6820   10.5960 N   0  0  0  0  0  0  0  0  0  0  0  0
  -12.4690    4.7490   10.1080 N   0  0  0  0  0  0  0  0  0  0  0  0
  -12.0160    4.1880    8.9920 N   0  0  0  0  0  0  0  0  0  0  0  0
  -10.8400    4.7900    8.7610 N   0  0  0  0  0  0  0  0  0  0  0  0
   -9.9950    4.4790    7.6090 C   0  0  0  0  0  0  0  0  0  0  0  0
   -8.6630    5.2070    7.7200 C   0  0  0  0  0  0  0  0  0  0  0  0
  -10.7490    4.8610    6.3730 C   0  0  0  0  0  0  0  0  0  0  0  0
  -11.0350    6.2020    6.1170 C   0  0  0  0  0  0  0  0  0  0  0  0
  -11.7370    6.5580    4.9650 C   0  0  0  0  0  0  0  0  0  0  0  0
  -12.1550    5.5730    4.0710 C   0  0  0  0  0  0  0  0  0  0  0  0
  -11.8700    4.2310    4.3270 C   0  0  0  0  0  0  0  0  0  0  0  0
  -11.1660    3.8760    5.4790 C   0  0  0  0  0  0  0  0  0  0  0  0
  -12.0160    7.8660    4.7150 O   0  0  0  0  0  0  0  0  0  0  0  0
   -6.8990    7.6510    9.7710 O   0  0  0  0  0  0  0  0  0  0  0  0
   -6.7977    3.0548    5.3713 C   0  0  0  0  0  0  0  0  0  0  0  0
   -7.1408    2.2201    4.3128 C   0  0  0  0  0  0  0  0  0  0  0  0
   -6.3294    1.0941    3.8141 C   0  0  0  0  0  0  0  0  0  0  0  0
   -5.4012    0.6386    4.5342 O   0  0  0  0  0  0  0  0  0  0  0  0
   -6.5995    0.4711    2.5516 N   0  0  0  0  0  0  0  0  0  0  0  0
   -6.8013    1.2424    1.3184 C   0  0  0  0  0  0  0  0  0  0  0  0
   -5.5465    1.1849    0.4268 C   0  0  0  0  0  0  0  0  0  0  0  0
   -5.3463   -0.1922   -0.2219 C   0  0  0  0  0  0  0  0  0  0  0  0
   -6.6012   -0.6299   -1.0043 C   0  0  0  0  0  0  0  0  0  0  0  0
   -6.3955   -2.0105   -1.6562 C   0  0  0  0  0  0  0  0  0  0  0  0
   -6.1715   -2.9781   -0.6917 F   0  0  0  0  0  0  0  0  0  0  0  0
   -5.3097   -1.9722   -2.5133 F   0  0  0  0  0  0  0  0  0  0  0  0
   -7.5162   -2.3595   -2.3892 F   0  0  0  0  0  0  0  0  0  0  0  0
   -7.8360   -0.6301   -0.0802 C   0  0  0  0  0  0  0  0  0  0  0  0
   -8.0483    0.7469    0.5638 C   0  0  0  0  0  0  0  0  0  0  0  0
   -8.6787    2.6447    3.7768 S   0  0  0  0  0  0  0  0  0  0  0  0
   -8.9107    3.9126    4.8560 C   0  0  0  0  0  0  0  0  0  0  0  0
  -10.1383    4.7664    4.8899 C   0  0  0  0  0  0  0  0  0  0  0  0
  1  3  4  0
  1 14  4  0
  1  2  1  0
  3  4  4  0
  4  5  4  0
  5  6  4  0
  5 22  1  0
  6  7  1  0
  6 14  4  0
  7  8  1  0
  8  9  4  0
  8 12  4  0
  9 10  4  0
 10 11  4  0
 11 12  4  0
 12 13  1  0
 13 14  1  0
 13 15  1  6
 15 16  4  0
 15 20  4  0
 16 17  4  0
 17 18  4  0
 17 21  1  0
 18 19  4  0
 19 20  4  0
 23 24  4  0
 24 25  1  0
 25 26  2  0
 25 27  1  0
 27 28  1  0
 28 29  1  0
 29 30  1  0
 30 31  1  0
 31 32  1  0
 32 33  1  0
 32 34  1  0
 32 35  1  0
 31 36  1  0
 36 37  1  0
 24 38  4  0
 38 39  4  0
 39 40  1  0
 37 28  1  0
  2 23  4  0
  2 39  4  0
M  END
$$$$

     RDKit          3D

 40 45  0  0  0  0  0  0  0  0999 V2000
   -7.6410    4.9930    6.8080 C   0  0  0  0  0  0  0  0  0  1  0  0
   -7.7310    4.0530    5.7140 C   0  0  0  0  0  0  0  0  0  2  0  0
   -6.4520    5.6300    6.8680 N   0  0  0  0  0  0  0  0  0  0  0  0
   -6.2260    6.5240    7.8670 N   0  0  0  0  0  0  0  0  0  0  0  0
   -7.1930    6.7500    8.7820 C   0  0  0  0  0  0  0  0  0  0  0  0
   -8.4240    6.1170    8.7580 C   0  0  0  0  0  0  0  0  0  0  0  0
   -9.3950    6.3570    9.7450 N   0  0  0  0  0  0  0  0  0  0  0  0
  -10.5620    5.6840    9.7600 C   0  0  0  0  0  0  0  0  0  0  0  0
  -11.5770    5.6820   10.5960 N   0  0  0  0  0  0  0  0  0  0  0  0
  -12.4690    4.7490   10.1080 N   0  0  0  0  0  0  0  0  0  0  0  0
  -12.0160    4.1880    8.9920 N   0  0  0  0  0  0  0  0  0  0  0  0
  -10.8400    4.7900    8.7610 N   0  0  0  0  0  0  0  0  0  0  0  0
   -9.9950    4.4790    7.6090 C   0  0  0  0  0  0  0  0  0  0  0  0
   -8.6630    5.2070    7.7200 C   0  0  0  0  0  0  0  0  0  0  0  0
  -10.7490    4.8610    6.3730 C   0  0  0  0  0  0  0  0  0  0  0  0
  -11.0350    6.2020    6.1170 C   0  0  0  0  0  0  0  0  0  0  0  0
  -11.7370    6.5580    4.9650 C   0  0  0  0  0  0  0  0  0  0  0  0
  -12.1550    5.5730    4.0710 C   0  0  0  0  0  0  0  0  0  0  0  0
  -11.8700    4.2310    4.3270 C   0  0  0  0  0  0  0  0  0  0  0  0
  -11.1660    3.8760    5.4790 C   0  0  0  0  0  0  0  0  0  0  0  0
  -12.0160    7.8660    4.7150 O   0  0  0  0  0  0  0  0  0  0  0  0
   -6.8990    7.6510    9.7710 O   0  0  0  0  0  0  0  0  0  0  0  0
   -6.7968    3.0569    5.3683 C   0  0  0  0  0  0  0  0  0  0  0  0
   -7.1438    2.2168    4.3148 C   0  0  0  0  0  0  0  0  0  0  0  0
   -6.3102    1.1258    3.7781 C   0  0  0  0  0  0  0  0  0  0  0  0
   -5.1811    0.9026    4.2938 O   0  0  0  0  0  0  0  0  0  0  0  0
   -6.7683    0.3212    2.6795 N   0  0  0  0  0  0  0  0  0  0  0  0
   -5.9843   -0.8054    2.1588 C   0  0  0  0  0  0  0  0  0  0  0  0
   -6.4812   -1.2102    0.7473 C   0  0  0  0  0  0  0  0  0  0  0  0
   -7.5849   -2.2731    0.8154 C   0  0  0  0  0  0  0  0  0  0  0  0
   -7.1020   -3.5803    1.5073 C   0  0  0  0  0  0  0  0  0  0  0  0
   -6.7676   -4.6831    0.4834 C   0  0  0  0  0  0  0  0  0  0  0  0
   -5.7739   -4.2592   -0.3820 F   0  0  0  0  0  0  0  0  0  0  0  0
   -7.8960   -5.0036   -0.2511 F   0  0  0  0  0  0  0  0  0  0  0  0
   -6.3364   -5.8235    1.1383 F   0  0  0  0  0  0  0  0  0  0  0  0
   -5.9094   -3.3389    2.4685 C   0  0  0  0  0  0  0  0  0  0  0  0
   -6.0272   -1.9810    3.1674 C   0  0  0  0  0  0  0  0  0  0  0  0
   -8.6747    2.6529    3.7687 S   0  0  0  0  0  0  0  0  0  0  0  0
   -8.9098    3.9149    4.8546 C   0  0  0  0  0  0  0  0  0  0  0  0
  -10.1355    4.7719    4.8868 C   0  0  0  0  0  0  0  0  0  0  0  0
  1  3  4  0
  1 14  4  0
  1  2  1  0
  3  4  4  0
  4  5  4  0
  5  6  4  0
  5 22  1  0
  6  7  1  0
  6 14  4  0
  7  8  1  0
  8  9  4  0
  8 12  4  0
  9 10  4  0
 10 11  4  0
 11 12  4  0
 12 13  1  0
 13 14  1  0
 13 15  1  6
 15 16  4  0
 15 20  4  0
 16 17  4  0
 17 18  4  0
 17 21  1  0
 18 19  4  0
 19 20  4  0
 23 24  4  0
 24 25  1  0
 25 26  2  0
 25 27  1  0
 27 28  1  0
 28 29  1  0
 29 30  1  0
 30 31  1  0
 31 32  1  0
 32 33  1  0
 32 34  1  0
 32 35  1  0
 31 36  1  0
 36 37  1  0
 24 38  4  0
 38 39  4  0
 39 40  1  0
 37 28  1  0
  2 23  4  0
  2 39  4  0
M  END
$$$$

     RDKit          3D

 42 48  0  0  0  0  0  0  0  0999 V2000
   -7.6410    4.9930    6.8080 C   0  0  0  0  0  0  0  0  0  1  0  0
   -7.7310    4.0530    5.7140 C   0  0  0  0  0  0  0  0  0  2  0  0
   -6.4520    5.6300    6.8680 N   0  0  0  0  0  0  0  0  0  0  0  0
   -6.2260    6.5240    7.8670 N   0  0  0  0  0  0  0  0  0  0  0  0
   -7.1930    6.7500    8.7820 C   0  0  0  0  0  0  0  0  0  0  0  0
   -8.4240    6.1170    8.7580 C   0  0  0  0  0  0  0  0  0  0  0  0
   -9.3950    6.3570    9.7450 N   0  0  0  0  0  0  0  0  0  0  0  0
  -10.5620    5.6840    9.7600 C   0  0  0  0  0  0  0  0  0  0  0  0
  -11.5770    5.6820   10.5960 N   0  0  0  0  0  0  0  0  0  0  0  0
  -12.4690    4.7490   10.1080 N   0  0  0  0  0  0  0  0  0  0  0  0
  -12.0160    4.1880    8.9920 N   0  0  0  0  0  0  0  0  0  0  0  0
  -10.8400    4.7900    8.7610 N   0  0  0  0  0  0  0  0  0  0  0  0
   -9.9950    4.4790    7.6090 C   0  0  0  0  0  0  0  0  0  0  0  0
   -8.6630    5.2070    7.7200 C   0  0  0  0  0  0  0  0  0  0  0  0
  -10.7490    4.8610    6.3730 C   0  0  0  0  0  0  0  0  0  0  0  0
  -11.0350    6.2020    6.1170 C   0  0  0  0  0  0  0  0  0  0  0  0
  -11.7370    6.5580    4.9650 C   0  0  0  0  0  0  0  0  0  0  0  0
  -12.1550    5.5730    4.0710 C   0  0  0  0  0  0  0  0  0  0  0  0
  -11.8700    4.2310    4.3270 C   0  0  0  0  0  0  0  0  0  0  0  0
  -11.1660    3.8760    5.4790 C   0  0  0  0  0  0  0  0  0  0  0  0
  -12.0160    7.8660    4.7150 O   0  0  0  0  0  0  0  0  0  0  0  0
   -6.8990    7.6510    9.7710 O   0  0  0  0  0  0  0  0  0  0  0  0
   -6.7602    3.1565    5.2491 C   0  0  0  0  0  0  0  0  0  0  0  0
   -7.3315    2.1809    3.9900 S   0  0  0  0  0  0  0  0  0  0  0  0
   -8.8776    2.8325    3.9852 C   0  0  0  0  0  0  0  0  0  0  0  0
   -9.9658    2.5362    3.1748 C   0  0  0  0  0  0  0  0  0  0  0  0
   -9.8759    1.6329    2.2983 O   0  0  0  0  0  0  0  0  0  0  0  0
  -11.1315    3.2433    3.3521 N   0  0  0  0  0  0  0  0  0  0  0  0
  -12.3219    2.9419    2.5429 C   0  0  0  0  0  0  0  0  0  0  0  0
  -13.0252    1.7373    3.0932 C   0  0  0  0  0  0  0  0  0  0  0  0
  -13.5399    1.7974    4.2427 O   0  0  0  0  0  0  0  0  0  0  0  0
  -13.1362    0.5416    2.3056 N   0  0  0  0  0  0  0  0  0  0  0  0
  -13.5070   -0.7399    2.8414 C   0  0  0  0  0  0  0  0  0  0  0  0
  -13.1285   -1.1298    4.1386 C   0  0  0  0  0  0  0  0  0  0  0  0
  -13.4781   -2.3923    4.6272 C   0  0  0  0  0  0  0  0  0  0  0  0
  -14.2113   -3.2826    3.8286 C   0  0  0  0  0  0  0  0  0  0  0  0
  -14.5534   -4.6519    4.3365 C   0  0  0  0  0  0  0  0  0  0  0  0
  -14.5553   -2.9102    2.5210 C   0  0  0  0  0  0  0  0  0  0  0  0
  -14.2037   -1.6489    2.0315 C   0  0  0  0  0  0  0  0  0  0  0  0
  -11.2052    4.2126    4.3257 C   0  0  0  0  0  0  0  0  0  0  0  0
  -10.1295    4.4940    5.1157 N   0  0  0  0  0  0  0  0  0  0  0  0
   -8.9736    3.8042    4.9548 C   0  0  0  0  0  0  0  0  0  0  0  0
  1  3  4  0
  1 14  4  0
  1  2  1  0
  3  4  4  0
  4  5  4  0
  5  6  4  0
  5 22  1  0
  6  7  1  0
  6 14  4  0
  7  8  1  0
  8  9  4  0
  8 12  4  0
  9 10  4  0
 10 11  4  0
 11 12  4  0
 12 13  1  0
 13 14  1  0
 13 15  1  6
 15 16  4  0
 15 20  4  0
 16 17  4  0
 17 18  4  0
 17 21  1  0
 18 19  4  0
 19 20  4  0
 23 24  4  0
 24 25  4  0
 25 26  4  0
 26 27  2  0
 26 28  4  0
 28 29  1  0
 29 30  1  0
 30 31  2  0
 30 32  1  0
 32 33  1  0
 33 34  4  0
 34 35  4  0
 35 36  4  0
 36 37  1  0
 36 38  4  0
 38 39  4  0
 28 40  4  0
 40 41  4  0
 41 42  4  0
 42 25  4  0
 39 33  4  0
  2 23  4  0
  2 42  4  0
M  END
$$$$

     RDKit          3D

 42 48  0  0  0  0  0  0  0  0999 V2000
   -7.6410    4.9930    6.8080 C   0  0  0  0  0  0  0  0  0  1  0  0
   -7.7310    4.0530    5.7140 C   0  0  0  0  0  0  0  0  0  2  0  0
   -6.4520    5.6300    6.8680 N   0  0  0  0  0  0  0  0  0  0  0  0
   -6.2260    6.5240    7.8670 N   0  0  0  0  0  0  0  0  0  0  0  0
   -7.1930    6.7500    8.7820 C   0  0  0  0  0  0  0  0  0  0  0  0
   -8.4240    6.1170    8.7580 C   0  0  0  0  0  0  0  0  0  0  0  0
   -9.3950    6.3570    9.7450 N   0  0  0  0  0  0  0  0  0  0  0  0
  -10.5620    5.6840    9.7600 C   0  0  0  0  0  0  0  0  0  0  0  0
  -11.5770    5.6820   10.5960 N   0  0  0  0  0  0  0  0  0  0  0  0
  -12.4690    4.7490   10.1080 N   0  0  0  0  0  0  0  0  0  0  0  0
  -12.0160    4.1880    8.9920 N   0  0  0  0  0  0  0  0  0  0  0  0
  -10.8400    4.7900    8.7610 N   0  0  0  0  0  0  0  0  0  0  0  0
   -9.9950    4.4790    7.6090 C   0  0  0  0  0  0  0  0  0  0  0  0
   -8.6630    5.2070    7.7200 C   0  0  0  0  0  0  0  0  0  0  0  0
  -10.7490    4.8610    6.3730 C   0  0  0  0  0  0  0  0  0  0  0  0
  -11.0350    6.2020    6.1170 C   0  0  0  0  0  0  0  0  0  0  0  0
  -11.7370    6.5580    4.9650 C   0  0  0  0  0  0  0  0  0  0  0  0
  -12.1550    5.5730    4.0710 C   0  0  0  0  0  0  0  0  0  0  0  0
  -11.8700    4.2310    4.3270 C   0  0  0  0  0  0  0  0  0  0  0  0
  -11.1660    3.8760    5.4790 C   0  0  0  0  0  0  0  0  0  0  0  0
  -12.0160    7.8660    4.7150 O   0  0  0  0  0  0  0  0  0  0  0  0
   -6.8990    7.6510    9.7710 O   0  0  0  0  0  0  0  0  0  0  0  0
   -6.7596    3.1570    5.2488 C   0  0  0  0  0  0  0  0  0  0  0  0
   -7.3316    2.1774    3.9933 S   0  0  0  0  0  0  0  0  0  0  0  0
   -8.8792    2.8266    3.9901 C   0  0  0  0  0  0  0  0  0  0  0  0
   -9.9676    2.5280    3.1806 C   0  0  0  0  0  0  0  0  0  0  0  0
   -9.8768    1.6251    2.3039 O   0  0  0  0  0  0  0  0  0  0  0  0
  -11.1334    3.2352    3.3566 N   0  0  0  0  0  0  0  0  0  0  0  0
  -12.3188    2.9415    2.5371 C   0  0  0  0  0  0  0  0  0  0  0  0
  -13.0358    1.7333    3.0780 C   0  0  0  0  0  0  0  0  0  0  0  0
  -13.4341    1.7460    4.2733 O   0  0  0  0  0  0  0  0  0  0  0  0
  -13.2184    0.5441    2.2944 N   0  0  0  0  0  0  0  0  0  0  0  0
  -13.3389    0.5241    0.8632 C   0  0  0  0  0  0  0  0  0  0  0  0
  -12.8208   -0.5609    0.1423 C   0  0  0  0  0  0  0  0  0  0  0  0
  -12.9459   -0.6107   -1.2491 C   0  0  0  0  0  0  0  0  0  0  0  0
  -13.6187    0.4113   -1.9355 C   0  0  0  0  0  0  0  0  0  0  0  0
  -13.7243    0.3778   -3.4320 C   0  0  0  0  0  0  0  0  0  0  0  0
  -14.1438    1.4948   -1.2157 C   0  0  0  0  0  0  0  0  0  0  0  0
  -14.0180    1.5445    0.1755 C   0  0  0  0  0  0  0  0  0  0  0  0
  -11.2073    4.2062    4.3286 C   0  0  0  0  0  0  0  0  0  0  0  0
  -10.1312    4.4900    5.1175 N   0  0  0  0  0  0  0  0  0  0  0  0
   -8.9746    3.8011    4.9569 C   0  0  0  0  0  0  0  0  0  0  0  0
  1  3  4  0
  1 14  4  0
  1  2  1  0
  3  4  4  0
  4  5  4  0
  5  6  4  0
  5 22  1  0
  6  7  1  0
  6 14  4  0
  7  8  1  0
  8  9  4  0
  8 12  4  0
  9 10  4  0
 10 11  4  0
 11 12  4  0
 12 13  1  0
 13 14  1  0
 13 15  1  6
 15 16  4  0
 15 20  4  0
 16 17  4  0
 17 18  4  0
 17 21  1  0
 18 19  4  0
 19 20  4  0
 23 24  4  0
 24 25  4  0
 25 26  4  0
 26 27  2  0
 26 28  4  0
 28 29  1  0
 29 30  1  0
 30 31  2  0
 30 32  1  0
 32 33  1  0
 33 34  4  0
 34 35  4  0
 35 36  4  0
 36 37  1  0
 36 38  4  0
 38 39  4  0
 28 40  4  0
 40 41  4  0
 41 42  4  0
 42 25  4  0
 39 33  4  0
  2 23  4  0
  2 42  4  0
M  END
$$$$

     RDKit          3D

 29 33  0  0  0  0  0  0  0  0999 V2000
   -7.6410    4.9930    6.8080 C   0  0  0  0  0  0  0  0  0  1  0  0
   -7.7310    4.0530    5.7140 C   0  0  0  0  0  0  0  0  0  2  0  0
   -6.4520    5.6300    6.8680 N   0  0  0  0  0  0  0  0  0  0  0  0
   -6.2260    6.5240    7.8670 N   0  0  0  0  0  0  0  0  0  0  0  0
   -7.1930    6.7500    8.7820 C   0  0  0  0  0  0  0  0  0  0  0  0
   -8.4240    6.1170    8.7580 C   0  0  0  0  0  0  0  0  0  0  0  0
   -9.3950    6.3570    9.7450 N   0  0  0  0  0  0  0  0  0  0  0  0
  -10.5620    5.6840    9.7600 C   0  0  0  0  0  0  0  0  0  0  0  0
  -11.5770    5.6820   10.5960 N   0  0  0  0  0  0  0  0  0  0  0  0
  -12.4690    4.7490   10.1080 N   0  0  0  0  0  0  0  0  0  0  0  0
  -12.0160    4.1880    8.9920 N   0  0  0  0  0  0  0  0  0  0  0  0
  -10.8400    4.7900    8.7610 N   0  0  0  0  0  0  0  0  0  0  0  0
   -9.9950    4.4790    7.6090 C   0  0  0  0  0  0  0  0  0  0  0  0
   -8.6630    5.2070    7.7200 C   0  0  0  0  0  0  0  0  0  0  0  0
  -10.7490    4.8610    6.3730 C   0  0  0  0  0  0  0  0  0  0  0  0
  -11.0350    6.2020    6.1170 C   0  0  0  0  0  0  0  0  0  0  0  0
  -11.7370    6.5580    4.9650 C   0  0  0  0  0  0  0  0  0  0  0  0
  -12.1550    5.5730    4.0710 C   0  0  0  0  0  0  0  0  0  0  0  0
  -11.8700    4.2310    4.3270 C   0  0  0  0  0  0  0  0  0  0  0  0
  -11.1660    3.8760    5.4790 C   0  0  0  0  0  0  0  0  0  0  0  0
  -12.0160    7.8660    4.7150 O   0  0  0  0  0  0  0  0  0  0  0  0
   -6.8990    7.6510    9.7710 O   0  0  0  0  0  0  0  0  0  0  0  0
   -6.7917    3.0355    5.4565 C   0  0  0  0  0  0  0  0  0  0  0  0
   -6.9366    2.0941    4.4337 C   0  0  0  0  0  0  0  0  0  0  0  0
   -5.9718    1.1640    4.2275 F   0  0  0  0  0  0  0  0  0  0  0  0
   -8.0758    2.1075    3.6271 C   0  0  0  0  0  0  0  0  0  0  0  0
   -9.0702    3.0649    3.8371 C   0  0  0  0  0  0  0  0  0  0  0  0
   -8.9330    4.0175    4.8579 C   0  0  0  0  0  0  0  0  0  0  0  0
   -9.9188    4.9883    5.0358 O   0  0  0  0  0  0  0  0  0  0  0  0
  1  3  4  0
  1 14  4  0
  1  2  1  0
  3  4  4  0
  4  5  4  0
  5  6  4  0
  5 22  1  0
  6  7  1  0
  6 14  4  0
  7  8  1  0
  8  9  4  0
  8 12  4  0
  9 10  4  0
 10 11  4  0
 11 12  4  0
 12 13  1  0
 13 14  1  0
 13 15  1  6
 15 16  4  0
 15 20  4  0
 16 17  4  0
 17 18  4  0
 17 21  1  0
 18 19  4  0
 19 20  4  0
 23 24  4  0
 24 25  1  0
 24 26  4  0
 26 27  4  0
 27 28  4  0
 28 29  1  0
  2 23  4  0
  2 28  4  0
M  END
$$$$

     RDKit          3D

 48 54  0  0  0  0  0  0  0  0999 V2000
   -7.6410    4.9930    6.8080 C   0  0  0  0  0  0  0  0  0  1  0  0
   -7.7310    4.0530    5.7140 C   0  0  0  0  0  0  0  0  0  2  0  0
   -6.4520    5.6300    6.8680 N   0  0  0  0  0  0  0  0  0  0  0  0
   -6.2260    6.5240    7.8670 N   0  0  0  0  0  0  0  0  0  0  0  0
   -7.1930    6.7500    8.7820 C   0  0  0  0  0  0  0  0  0  0  0  0
   -8.4240    6.1170    8.7580 C   0  0  0  0  0  0  0  0  0  0  0  0
   -9.3950    6.3570    9.7450 N   0  0  0  0  0  0  0  0  0  0  0  0
  -10.5620    5.6840    9.7600 C   0  0  0  0  0  0  0  0  0  0  0  0
  -11.5770    5.6820   10.5960 N   0  0  0  0  0  0  0  0  0  0  0  0
  -12.4690    4.7490   10.1080 N   0  0  0  0  0  0  0  0  0  0  0  0
  -12.0160    4.1880    8.9920 N   0  0  0  0  0  0  0  0  0  0  0  0
  -10.8400    4.7900    8.7610 N   0  0  0  0  0  0  0  0  0  0  0  0
   -9.9950    4.4790    7.6090 C   0  0  0  0  0  0  0  0  0  0  0  0
   -8.6630    5.2070    7.7200 C   0  0  0  0  0  0  0  0  0  0  0  0
  -10.7490    4.8610    6.3730 C   0  0  0  0  0  0  0  0  0  0  0  0
  -11.0350    6.2020    6.1170 C   0  0  0  0  0  0  0  0  0  0  0  0
  -11.7370    6.5580    4.9650 C   0  0  0  0  0  0  0  0  0  0  0  0
  -12.1550    5.5730    4.0710 C   0  0  0  0  0  0  0  0  0  0  0  0
  -11.8700    4.2310    4.3270 C   0  0  0  0  0  0  0  0  0  0  0  0
  -11.1660    3.8760    5.4790 C   0  0  0  0  0  0  0  0  0  0  0  0
  -12.0160    7.8660    4.7150 O   0  0  0  0  0  0  0  0  0  0  0  0
   -6.8990    7.6510    9.7710 O   0  0  0  0  0  0  0  0  0  0  0  0
   -6.9033    3.0102    5.4678 N   0  0  0  0  0  0  0  0  0  0  0  0
   -7.3481    2.2941    4.4447 N   0  0  0  0  0  0  0  0  0  0  0  0
   -6.6673    1.1288    3.9348 C   0  0  0  0  0  0  0  0  0  0  0  0
   -7.0075    0.5678    2.6866 C   0  0  0  0  0  0  0  0  0  0  0  0
   -6.3371   -0.5641    2.2122 C   0  0  0  0  0  0  0  0  0  0  0  0
   -5.3199   -1.1470    2.9714 C   0  0  0  0  0  0  0  0  0  0  0  0
   -4.9686   -0.5977    4.2062 C   0  0  0  0  0  0  0  0  0  0  0  0
   -5.6346    0.5342    4.6854 C   0  0  0  0  0  0  0  0  0  0  0  0
   -8.5116    2.8200    3.9983 C   0  0  0  0  0  0  0  0  0  0  0  0
   -8.8137    3.9250    4.7664 C   0  0  0  0  0  0  0  0  0  0  0  0
   -9.9561    4.8292    4.5659 C   0  0  0  0  0  0  0  0  0  0  0  0
   -9.9612    5.9729    5.0971 O   0  0  0  0  0  0  0  0  0  0  0  0
  -11.0251    4.4139    3.7645 O   0  0  0  0  0  0  0  0  0  0  0  0
  -12.1342    5.2505    3.4472 C   0  0  0  0  0  0  0  0  0  0  0  0
  -11.7339    6.2749    2.4303 C   0  0  0  0  0  0  0  0  0  0  0  0
  -11.7488    7.4952    2.7423 O   0  0  0  0  0  0  0  0  0  0  0  0
  -11.2973    5.8516    1.1283 N   0  0  0  0  0  0  0  0  0  0  0  0
  -11.0542    6.7340    0.0190 C   0  0  0  0  0  0  0  0  0  0  0  0
  -10.0981    6.3761   -0.9423 C   0  0  0  0  0  0  0  0  0  0  0  0
   -9.8631    7.1929   -2.0510 C   0  0  0  0  0  0  0  0  0  0  0  0
  -10.5885    8.3830   -2.2258 C   0  0  0  0  0  0  0  0  0  0  0  0
  -10.3421    9.2240   -3.3676 N   0  0  0  0  0  0  0  0  0  0  0  0
  -10.9294   10.3192   -3.4910 O   0  0  0  0  0  0  0  0  0  0  0  0
   -9.4490    8.8381   -4.3415 O   0  0  0  0  0  0  0  0  0  0  0  0
  -11.5635    8.7308   -1.2724 C   0  0  0  0  0  0  0  0  0  0  0  0
  -11.8016    7.9101   -0.1663 C   0  0  0  0  0  0  0  0  0  0  0  0
  1  3  4  0
  1 14  4  0
  1  2  1  0
  3  4  4  0
  4  5  4  0
  5  6  4  0
  5 22  1  0
  6  7  1  0
  6 14  4  0
  7  8  1  0
  8  9  4  0
  8 12  4  0
  9 10  4  0
 10 11  4  0
 11 12  4  0
 12 13  1  0
 13 14  1  0
 13 15  1  6
 15 16  4  0
 15 20  4  0
 16 17  4  0
 17 18  4  0
 17 21  1  0
 18 19  4  0
 19 20  4  0
 23 24  4  0
 24 25  1  0
 25 26  4  0
 26 27  4  0
 27 28  4  0
 28 29  4  0
 29 30  4  0
 24 31  4  0
 31 32  4  0
 32 33  1  0
 33 34  2  0
 33 35  1  0
 35 36  1  0
 36 37  1  0
 37 38  2  0
 37 39  1  0
 39 40  1  0
 40 41  4  0
 41 42  4  0
 42 43  4  0
 43 44  1  0
 44 45  2  0
 44 46  1  0
 43 47  4  0
 47 48  4  0
 48 40  4  0
 30 25  4  0
  2 23  4  0
  2 32  4  0
M  CHG  2  44   1  46  -1
M  END
$$$$

     RDKit          3D

 46 52  0  0  0  0  0  0  0  0999 V2000
   -7.6410    4.9930    6.8080 C   0  0  0  0  0  0  0  0  0  1  0  0
   -7.7310    4.0530    5.7140 C   0  0  0  0  0  0  0  0  0  2  0  0
   -6.4520    5.6300    6.8680 N   0  0  0  0  0  0  0  0  0  0  0  0
   -6.2260    6.5240    7.8670 N   0  0  0  0  0  0  0  0  0  0  0  0
   -7.1930    6.7500    8.7820 C   0  0  0  0  0  0  0  0  0  0  0  0
   -8.4240    6.1170    8.7580 C   0  0  0  0  0  0  0  0  0  0  0  0
   -9.3950    6.3570    9.7450 N   0  0  0  0  0  0  0  0  0  0  0  0
  -10.5620    5.6840    9.7600 C   0  0  0  0  0  0  0  0  0  0  0  0
  -11.5770    5.6820   10.5960 N   0  0  0  0  0  0  0  0  0  0  0  0
  -12.4690    4.7490   10.1080 N   0  0  0  0  0  0  0  0  0  0  0  0
  -12.0160    4.1880    8.9920 N   0  0  0  0  0  0  0  0  0  0  0  0
  -10.8400    4.7900    8.7610 N   0  0  0  0  0  0  0  0  0  0  0  0
   -9.9950    4.4790    7.6090 C   0  0  0  0  0  0  0  0  0  0  0  0
   -8.6630    5.2070    7.7200 C   0  0  0  0  0  0  0  0  0  0  0  0
  -10.7490    4.8610    6.3730 C   0  0  0  0  0  0  0  0  0  0  0  0
  -11.0350    6.2020    6.1170 C   0  0  0  0  0  0  0  0  0  0  0  0
  -11.7370    6.5580    4.9650 C   0  0  0  0  0  0  0  0  0  0  0  0
  -12.1550    5.5730    4.0710 C   0  0  0  0  0  0  0  0  0  0  0  0
  -11.8700    4.2310    4.3270 C   0  0  0  0  0  0  0  0  0  0  0  0
  -11.1660    3.8760    5.4790 C   0  0  0  0  0  0  0  0  0  0  0  0
  -12.0160    7.8660    4.7150 O   0  0  0  0  0  0  0  0  0  0  0  0
   -6.8990    7.6510    9.7710 O   0  0  0  0  0  0  0  0  0  0  0  0
   -6.8611    3.0646    5.4085 N   0  0  0  0  0  0  0  0  0  0  0  0
   -7.2879    2.4085    4.3400 N   0  0  0  0  0  0  0  0  0  0  0  0
   -8.4566    2.9696    3.9789 C   0  0  0  0  0  0  0  0  0  0  0  0
   -9.3977    2.4560    2.5402 S   0  0  0  0  0  0  0  0  0  0  0  0
  -10.3397    1.1860    3.4518 C   0  0  0  0  0  0  0  0  0  0  0  0
  -11.5682    0.7921    2.6834 C   0  0  0  0  0  0  0  0  0  0  0  0
  -12.6968    1.0517    3.1826 O   0  0  0  0  0  0  0  0  0  0  0  0
  -11.5107    0.1202    1.4147 N   0  0  0  0  0  0  0  0  0  0  0  0
  -10.2687   -0.2062    0.7071 C   0  0  0  0  0  0  0  0  0  0  0  0
  -10.3673   -1.5140   -0.1128 C   0  0  0  0  0  0  0  0  0  0  0  0
  -11.5111   -1.5072   -1.1383 C   0  0  0  0  0  0  0  0  0  0  0  0
  -10.4162   -2.7493    0.7716 C   0  0  0  0  0  0  0  0  0  0  0  0
  -11.5117   -3.0049    1.6218 C   0  0  0  0  0  0  0  0  0  0  0  0
  -11.5374   -4.1565    2.4141 C   0  0  0  0  0  0  0  0  0  0  0  0
  -10.4783   -5.0656    2.3683 C   0  0  0  0  0  0  0  0  0  0  0  0
   -9.3904   -4.8272    1.5265 C   0  0  0  0  0  0  0  0  0  0  0  0
   -9.3570   -3.6772    0.7325 C   0  0  0  0  0  0  0  0  0  0  0  0
   -8.8099    3.9708    4.8109 N   0  0  0  0  0  0  0  0  0  0  0  0
   -9.9113    4.9239    4.6324 C   0  0  0  0  0  0  0  0  0  0  0  0
   -9.4143    6.2096    3.9557 C   0  0  0  0  0  0  0  0  0  0  0  0
  -10.5551    7.1796    3.6810 C   0  0  0  0  0  0  0  0  0  0  0  0
  -10.1400    7.8249    2.3967 C   0  0  0  0  0  0  0  0  0  0  0  0
   -9.2701    6.7679    1.7491 C   0  0  0  0  0  0  0  0  0  0  0  0
   -8.7630    5.9062    2.7411 O   0  0  0  0  0  0  0  0  0  0  0  0
  1  3  4  0
  1 14  4  0
  1  2  1  0
  3  4  4  0
  4  5  4  0
  5  6  4  0
  5 22  1  0
  6  7  1  0
  6 14  4  0
  7  8  1  0
  8  9  4  0
  8 12  4  0
  9 10  4  0
 10 11  4  0
 11 12  4  0
 12 13  1  0
 13 14  1  0
 13 15  1  6
 15 16  4  0
 15 20  4  0
 16 17  4  0
 17 18  4  0
 17 21  1  0
 18 19  4  0
 19 20  4  0
 23 24  4  0
 24 25  4  0
 25 26  1  0
 26 27  1  0
 27 28  1  0
 28 29  2  0
 28 30  1  0
 30 31  1  0
 31 32  1  0
 32 33  1  0
 32 34  1  0
 34 35  4  0
 35 36  4  0
 36 37  4  0
 37 38  4  0
 38 39  4  0
 25 40  4  0
 40 41  1  0
 41 42  1  0
 42 43  1  0
 43 44  1  0
 44 45  1  0
 45 46  1  0
 46 42  1  0
 39 34  4  0
  2 23  4  0
  2 40  4  0
M  END
$$$$

     RDKit          3D

 29 34  0  0  0  0  0  0  0  0999 V2000
   -7.6410    4.9930    6.8080 C   0  0  0  0  0  0  0  0  0  1  0  0
   -7.7310    4.0530    5.7140 C   0  0  0  0  0  0  0  0  0  2  0  0
   -6.4520    5.6300    6.8680 N   0  0  0  0  0  0  0  0  0  0  0  0
   -6.2260    6.5240    7.8670 N   0  0  0  0  0  0  0  0  0  0  0  0
   -7.1930    6.7500    8.7820 C   0  0  0  0  0  0  0  0  0  0  0  0
   -8.4240    6.1170    8.7580 C   0  0  0  0  0  0  0  0  0  0  0  0
   -9.3950    6.3570    9.7450 N   0  0  0  0  0  0  0  0  0  0  0  0
  -10.5620    5.6840    9.7600 C   0  0  0  0  0  0  0  0  0  0  0  0
  -11.5770    5.6820   10.5960 N   0  0  0  0  0  0  0  0  0  0  0  0
  -12.4690    4.7490   10.1080 N   0  0  0  0  0  0  0  0  0  0  0  0
  -12.0160    4.1880    8.9920 N   0  0  0  0  0  0  0  0  0  0  0  0
  -10.8400    4.7900    8.7610 N   0  0  0  0  0  0  0  0  0  0  0  0
   -9.9950    4.4790    7.6090 C   0  0  0  0  0  0  0  0  0  0  0  0
   -8.6630    5.2070    7.7200 C   0  0  0  0  0  0  0  0  0  0  0  0
  -10.7490    4.8610    6.3730 C   0  0  0  0  0  0  0  0  0  0  0  0
  -11.0350    6.2020    6.1170 C   0  0  0  0  0  0  0  0  0  0  0  0
  -11.7370    6.5580    4.9650 C   0  0  0  0  0  0  0  0  0  0  0  0
  -12.1550    5.5730    4.0710 C   0  0  0  0  0  0  0  0  0  0  0  0
  -11.8700    4.2310    4.3270 C   0  0  0  0  0  0  0  0  0  0  0  0
  -11.1660    3.8760    5.4790 C   0  0  0  0  0  0  0  0  0  0  0  0
  -12.0160    7.8660    4.7150 O   0  0  0  0  0  0  0  0  0  0  0  0
   -6.8990    7.6510    9.7710 O   0  0  0  0  0  0  0  0  0  0  0  0
   -6.7561    3.4798    4.9824 N   0  0  0  0  0  0  0  0  0  0  0  0
   -7.2776    2.7844    3.9767 N   0  0  0  0  0  0  0  0  0  0  0  0
   -8.6120    2.8653    4.1252 C   0  0  0  0  0  0  0  0  0  0  0  0
   -8.9592    3.5958    5.1654 N   0  0  0  0  0  0  0  0  0  0  0  0
  -10.2549    4.2187    5.0072 C   0  0  0  0  0  0  0  0  0  0  0  0
  -10.7915    3.6194    3.6836 C   0  0  0  0  0  0  0  0  0  0  0  0
   -9.6471    2.7686    3.0791 C   0  0  0  0  0  0  0  0  0  0  0  0
  1  3  4  0
  1 14  4  0
  1  2  1  0
  3  4  4  0
  4  5  4  0
  5  6  4  0
  5 22  1  0
  6  7  1  0
  6 14  4  0
  7  8  1  0
  8  9  4  0
  8 12  4  0
  9 10  4  0
 10 11  4  0
 11 12  4  0
 12 13  1  0
 13 14  1  0
 13 15  1  6
 15 16  4  0
 15 20  4  0
 16 17  4  0
 17 18  4  0
 17 21  1  0
 18 19  4  0
 19 20  4  0
 23 24  4  0
 24 25  4  0
 25 26  4  0
 26 27  1  0
 27 28  1  0
 28 29  1  0
 29 25  1  0
  2 23  4  0
  2 26  4  0
M  END
$$$$

     RDKit          3D

 37 42  0  0  0  0  0  0  0  0999 V2000
   -7.6410    4.9930    6.8080 C   0  0  0  0  0  0  0  0  0  1  0  0
   -7.7310    4.0530    5.7140 C   0  0  0  0  0  0  0  0  0  2  0  0
   -6.4520    5.6300    6.8680 N   0  0  0  0  0  0  0  0  0  0  0  0
   -6.2260    6.5240    7.8670 N   0  0  0  0  0  0  0  0  0  0  0  0
   -7.1930    6.7500    8.7820 C   0  0  0  0  0  0  0  0  0  0  0  0
   -8.4240    6.1170    8.7580 C   0  0  0  0  0  0  0  0  0  0  0  0
   -9.3950    6.3570    9.7450 N   0  0  0  0  0  0  0  0  0  0  0  0
  -10.5620    5.6840    9.7600 C   0  0  0  0  0  0  0  0  0  0  0  0
  -11.5770    5.6820   10.5960 N   0  0  0  0  0  0  0  0  0  0  0  0
  -12.4690    4.7490   10.1080 N   0  0  0  0  0  0  0  0  0  0  0  0
  -12.0160    4.1880    8.9920 N   0  0  0  0  0  0  0  0  0  0  0  0
  -10.8400    4.7900    8.7610 N   0  0  0  0  0  0  0  0  0  0  0  0
   -9.9950    4.4790    7.6090 C   0  0  0  0  0  0  0  0  0  0  0  0
   -8.6630    5.2070    7.7200 C   0  0  0  0  0  0  0  0  0  0  0  0
  -10.7490    4.8610    6.3730 C   0  0  0  0  0  0  0  0  0  0  0  0
  -11.0350    6.2020    6.1170 C   0  0  0  0  0  0  0  0  0  0  0  0
  -11.7370    6.5580    4.9650 C   0  0  0  0  0  0  0  0  0  0  0  0
  -12.1550    5.5730    4.0710 C   0  0  0  0  0  0  0  0  0  0  0  0
  -11.8700    4.2310    4.3270 C   0  0  0  0  0  0  0  0  0  0  0  0
  -11.1660    3.8760    5.4790 C   0  0  0  0  0  0  0  0  0  0  0  0
  -12.0160    7.8660    4.7150 O   0  0  0  0  0  0  0  0  0  0  0  0
   -6.8990    7.6510    9.7710 O   0  0  0  0  0  0  0  0  0  0  0  0
   -7.0924    2.7972    5.7411 C   0  0  0  0  0  0  0  0  0  0  0  0
   -7.2834    1.8566    4.7833 N   0  0  0  0  0  0  0  0  0  0  0  0
   -8.1448    2.0631    3.7517 C   0  0  0  0  0  0  0  0  0  0  0  0
   -8.3388    1.0452    2.7465 N   0  0  0  0  0  0  0  0  0  0  0  0
   -7.4523   -0.1266    2.7133 C   0  0  0  0  0  0  0  0  0  0  0  0
   -8.1301   -1.2931    1.9889 C   0  0  0  0  0  0  0  0  0  0  0  0
   -8.6316   -0.8817    0.7333 O   0  0  0  0  0  0  0  0  0  0  0  0
   -9.6756    0.0506    0.9273 C   0  0  0  0  0  0  0  0  0  0  0  0
   -9.1433    1.3431    1.5532 C   0  0  0  0  0  0  0  0  0  0  0  0
   -8.8150    3.2444    3.6723 N   0  0  0  0  0  0  0  0  0  0  0  0
   -8.6582    4.2300    4.5972 C   0  0  0  0  0  0  0  0  0  0  0  0
   -9.4272    5.5143    4.4070 C   0  0  0  0  0  0  0  0  0  0  0  0
  -10.5642    5.4996    5.1905 F   0  0  0  0  0  0  0  0  0  0  0  0
   -9.8096    5.6443    3.0832 F   0  0  0  0  0  0  0  0  0  0  0  0
   -8.6514    6.6103    4.7393 F   0  0  0  0  0  0  0  0  0  0  0  0
  1  3  4  0
  1 14  4  0
  1  2  1  0
  3  4  4  0
  4  5  4  0
  5  6  4  0
  5 22  1  0
  6  7  1  0
  6 14  4  0
  7  8  1  0
  8  9  4  0
  8 12  4  0
  9 10  4  0
 10 11  4  0
 11 12  4  0
 12 13  1  0
 13 14  1  0
 13 15  1  6
 15 16  4  0
 15 20  4  0
 16 17  4  0
 17 18  4  0
 17 21  1  0
 18 19  4  0
 19 20  4  0
 23 24  4  0
 24 25  4  0
 25 26  1  0
 26 27  1  0
 27 28  1  0
 28 29  1  0
 29 30  1  0
 30 31  1  0
 25 32  4  0
 32 33  4  0
 33 34  1  0
 34 35  1  0
 34 36  1  0
 34 37  1  0
 31 26  1  0
  2 23  4  0
  2 33  4  0
M  END
$$$$

     RDKit          3D

 40 45  0  0  0  0  0  0  0  0999 V2000
   -7.6410    4.9930    6.8080 C   0  0  0  0  0  0  0  0  0  1  0  0
   -7.7310    4.0530    5.7140 C   0  0  0  0  0  0  0  0  0  2  0  0
   -6.4520    5.6300    6.8680 N   0  0  0  0  0  0  0  0  0  0  0  0
   -6.2260    6.5240    7.8670 N   0  0  0  0  0  0  0  0  0  0  0  0
   -7.1930    6.7500    8.7820 C   0  0  0  0  0  0  0  0  0  0  0  0
   -8.4240    6.1170    8.7580 C   0  0  0  0  0  0  0  0  0  0  0  0
   -9.3950    6.3570    9.7450 N   0  0  0  0  0  0  0  0  0  0  0  0
  -10.5620    5.6840    9.7600 C   0  0  0  0  0  0  0  0  0  0  0  0
  -11.5770    5.6820   10.5960 N   0  0  0  0  0  0  0  0  0  0  0  0
  -12.4690    4.7490   10.1080 N   0  0  0  0  0  0  0  0  0  0  0  0
  -12.0160    4.1880    8.9920 N   0  0  0  0  0  0  0  0  0  0  0  0
  -10.8400    4.7900    8.7610 N   0  0  0  0  0  0  0  0  0  0  0  0
   -9.9950    4.4790    7.6090 C   0  0  0  0  0  0  0  0  0  0  0  0
   -8.6630    5.2070    7.7200 C   0  0  0  0  0  0  0  0  0  0  0  0
  -10.7490    4.8610    6.3730 C   0  0  0  0  0  0  0  0  0  0  0  0
  -11.0350    6.2020    6.1170 C   0  0  0  0  0  0  0  0  0  0  0  0
  -11.7370    6.5580    4.9650 C   0  0  0  0  0  0  0  0  0  0  0  0
  -12.1550    5.5730    4.0710 C   0  0  0  0  0  0  0  0  0  0  0  0
  -11.8700    4.2310    4.3270 C   0  0  0  0  0  0  0  0  0  0  0  0
  -11.1660    3.8760    5.4790 C   0  0  0  0  0  0  0  0  0  0  0  0
  -12.0160    7.8660    4.7150 O   0  0  0  0  0  0  0  0  0  0  0  0
   -6.8990    7.6510    9.7710 O   0  0  0  0  0  0  0  0  0  0  0  0
   -6.8740    2.9440    5.5603 C   0  0  0  0  0  0  0  0  0  0  0  0
   -6.9973    2.0539    4.5819 O   0  0  0  0  0  0  0  0  0  0  0  0
   -7.9682    2.1127    3.6762 C   0  0  0  0  0  0  0  0  0  0  0  0
   -8.0389    1.1379    2.6749 C   0  0  0  0  0  0  0  0  0  0  0  0
   -9.0586    1.1865    1.7050 C   0  0  0  0  0  0  0  0  0  0  0  0
   -9.1702    0.2324    0.6828 O   0  0  0  0  0  0  0  0  0  0  0  0
   -8.2854   -0.8710    0.5100 C   0  0  0  0  0  0  0  0  0  0  0  0
   -8.7164   -1.6688   -0.6740 C   0  0  0  0  0  0  0  0  0  0  0  0
   -9.8481   -2.2255   -0.6717 O   0  0  0  0  0  0  0  0  0  0  0  0
   -7.8559   -1.7973   -1.7704 O   0  0  0  0  0  0  0  0  0  0  0  0
   -8.2027   -2.4938   -2.9677 C   0  0  0  0  0  0  0  0  0  0  0  0
   -9.1648   -1.6514   -3.8101 C   0  0  0  0  0  0  0  0  0  0  0  0
   -6.9272   -2.7932   -3.7527 C   0  0  0  0  0  0  0  0  0  0  0  0
  -10.0007    2.2204    1.7525 C   0  0  0  0  0  0  0  0  0  0  0  0
   -9.9378    3.1983    2.7487 C   0  0  0  0  0  0  0  0  0  0  0  0
   -8.9228    3.1528    3.7198 C   0  0  0  0  0  0  0  0  0  0  0  0
   -8.8174    4.1145    4.7394 C   0  0  0  0  0  0  0  0  0  0  0  0
   -9.6317    5.0776    4.7968 O   0  0  0  0  0  0  0  0  0  0  0  0
  1  3  4  0
  1 14  4  0
  1  2  1  0
  3  4  4  0
  4  5  4  0
  5  6  4  0
  5 22  1  0
  6  7  1  0
  6 14  4  0
  7  8  1  0
  8  9  4  0
  8 12  4  0
  9 10  4  0
 10 11  4  0
 11 12  4  0
 12 13  1  0
 13 14  1  0
 13 15  1  6
 15 16  4  0
 15 20  4  0
 16 17  4  0
 17 18  4  0
 17 21  1  0
 18 19  4  0
 19 20  4  0
 23 24  4  0
 24 25  4  0
 25 26  4  0
 26 27  4  0
 27 28  1  0
 28 29  1  0
 29 30  1  0
 30 31  2  0
 30 32  1  0
 32 33  1  0
 33 34  1  0
 33 35  1  0
 27 36  4  0
 36 37  4  0
 37 38  4  0
 38 39  4  0
 39 40  2  0
 38 25  4  0
  2 23  4  0
  2 39  4  0
M  END
$$$$

     RDKit          3D

 40 45  0  0  0  0  0  0  0  0999 V2000
   -7.6410    4.9930    6.8080 C   0  0  0  0  0  0  0  0  0  1  0  0
   -7.7310    4.0530    5.7140 C   0  0  0  0  0  0  0  0  0  2  0  0
   -6.4520    5.6300    6.8680 N   0  0  0  0  0  0  0  0  0  0  0  0
   -6.2260    6.5240    7.8670 N   0  0  0  0  0  0  0  0  0  0  0  0
   -7.1930    6.7500    8.7820 C   0  0  0  0  0  0  0  0  0  0  0  0
   -8.4240    6.1170    8.7580 C   0  0  0  0  0  0  0  0  0  0  0  0
   -9.3950    6.3570    9.7450 N   0  0  0  0  0  0  0  0  0  0  0  0
  -10.5620    5.6840    9.7600 C   0  0  0  0  0  0  0  0  0  0  0  0
  -11.5770    5.6820   10.5960 N   0  0  0  0  0  0  0  0  0  0  0  0
  -12.4690    4.7490   10.1080 N   0  0  0  0  0  0  0  0  0  0  0  0
  -12.0160    4.1880    8.9920 N   0  0  0  0  0  0  0  0  0  0  0  0
  -10.8400    4.7900    8.7610 N   0  0  0  0  0  0  0  0  0  0  0  0
   -9.9950    4.4790    7.6090 C   0  0  0  0  0  0  0  0  0  0  0  0
   -8.6630    5.2070    7.7200 C   0  0  0  0  0  0  0  0  0  0  0  0
  -10.7490    4.8610    6.3730 C   0  0  0  0  0  0  0  0  0  0  0  0
  -11.0350    6.2020    6.1170 C   0  0  0  0  0  0  0  0  0  0  0  0
  -11.7370    6.5580    4.9650 C   0  0  0  0  0  0  0  0  0  0  0  0
  -12.1550    5.5730    4.0710 C   0  0  0  0  0  0  0  0  0  0  0  0
  -11.8700    4.2310    4.3270 C   0  0  0  0  0  0  0  0  0  0  0  0
  -11.1660    3.8760    5.4790 C   0  0  0  0  0  0  0  0  0  0  0  0
  -12.0160    7.8660    4.7150 O   0  0  0  0  0  0  0  0  0  0  0  0
   -6.8990    7.6510    9.7710 O   0  0  0  0  0  0  0  0  0  0  0  0
   -6.8738    2.9442    5.5601 C   0  0  0  0  0  0  0  0  0  0  0  0
   -6.9970    2.0545    4.5814 O   0  0  0  0  0  0  0  0  0  0  0  0
   -7.9675    2.1138    3.6754 C   0  0  0  0  0  0  0  0  0  0  0  0
   -8.0366    1.1406    2.6731 C   0  0  0  0  0  0  0  0  0  0  0  0
   -9.0502    1.1941    1.6963 C   0  0  0  0  0  0  0  0  0  0  0  0
   -9.1516    0.2521    0.6582 O   0  0  0  0  0  0  0  0  0  0  0  0
   -8.2517   -0.8359    0.4420 C   0  0  0  0  0  0  0  0  0  0  0  0
   -6.9138   -0.3529   -0.0286 C   0  0  0  0  0  0  0  0  0  0  0  0
   -5.9760   -1.1833   -0.1645 O   0  0  0  0  0  0  0  0  0  0  0  0
   -6.7227    1.0090   -0.3080 O   0  0  0  0  0  0  0  0  0  0  0  0
   -5.4722    1.6281   -0.6285 C   0  0  0  0  0  0  0  0  0  0  0  0
   -4.4739    1.4946    0.5255 C   0  0  0  0  0  0  0  0  0  0  0  0
   -4.9008    1.0982   -1.9474 C   0  0  0  0  0  0  0  0  0  0  0  0
   -9.9946    2.2259    1.7467 C   0  0  0  0  0  0  0  0  0  0  0  0
   -9.9357    3.2002    2.7468 C   0  0  0  0  0  0  0  0  0  0  0  0
   -8.9220    3.1536    3.7191 C   0  0  0  0  0  0  0  0  0  0  0  0
   -8.8172    4.1147    4.7393 C   0  0  0  0  0  0  0  0  0  0  0  0
   -9.6318    5.0776    4.7968 O   0  0  0  0  0  0  0  0  0  0  0  0
  1  3  4  0
  1 14  4  0
  1  2  1  0
  3  4  4  0
  4  5  4  0
  5  6  4  0
  5 22  1  0
  6  7  1  0
  6 14  4  0
  7  8  1  0
  8  9  4  0
  8 12  4  0
  9 10  4  0
 10 11  4  0
 11 12  4  0
 12 13  1  0
 13 14  1  0
 13 15  1  6
 15 16  4  0
 15 20  4  0
 16 17  4  0
 17 18  4  0
 17 21  1  0
 18 19  4  0
 19 20  4  0
 23 24  4  0
 24 25  4  0
 25 26  4  0
 26 27  4  0
 27 28  1  0
 28 29  1  0
 29 30  1  0
 30 31  2  0
 30 32  1  0
 32 33  1  0
 33 34  1  0
 33 35  1  0
 27 36  4  0
 36 37  4  0
 37 38  4  0
 38 39  4  0
 39 40  2  0
 38 25  4  0
  2 23  4  0
  2 39  4  0
M  END
$$$$

     RDKit          3D

 40 45  0  0  0  0  0  0  0  0999 V2000
   -7.6410    4.9930    6.8080 C   0  0  0  0  0  0  0  0  0  1  0  0
   -7.7310    4.0530    5.7140 C   0  0  0  0  0  0  0  0  0  2  0  0
   -6.4520    5.6300    6.8680 N   0  0  0  0  0  0  0  0  0  0  0  0
   -6.2260    6.5240    7.8670 N   0  0  0  0  0  0  0  0  0  0  0  0
   -7.1930    6.7500    8.7820 C   0  0  0  0  0  0  0  0  0  0  0  0
   -8.4240    6.1170    8.7580 C   0  0  0  0  0  0  0  0  0  0  0  0
   -9.3950    6.3570    9.7450 N   0  0  0  0  0  0  0  0  0  0  0  0
  -10.5620    5.6840    9.7600 C   0  0  0  0  0  0  0  0  0  0  0  0
  -11.5770    5.6820   10.5960 N   0  0  0  0  0  0  0  0  0  0  0  0
  -12.4690    4.7490   10.1080 N   0  0  0  0  0  0  0  0  0  0  0  0
  -12.0160    4.1880    8.9920 N   0  0  0  0  0  0  0  0  0  0  0  0
  -10.8400    4.7900    8.7610 N   0  0  0  0  0  0  0  0  0  0  0  0
   -9.9950    4.4790    7.6090 C   0  0  0  0  0  0  0  0  0  0  0  0
   -8.6630    5.2070    7.7200 C   0  0  0  0  0  0  0  0  0  0  0  0
  -10.7490    4.8610    6.3730 C   0  0  0  0  0  0  0  0  0  0  0  0
  -11.0350    6.2020    6.1170 C   0  0  0  0  0  0  0  0  0  0  0  0
  -11.7370    6.5580    4.9650 C   0  0  0  0  0  0  0  0  0  0  0  0
  -12.1550    5.5730    4.0710 C   0  0  0  0  0  0  0  0  0  0  0  0
  -11.8700    4.2310    4.3270 C   0  0  0  0  0  0  0  0  0  0  0  0
  -11.1660    3.8760    5.4790 C   0  0  0  0  0  0  0  0  0  0  0  0
  -12.0160    7.8660    4.7150 O   0  0  0  0  0  0  0  0  0  0  0  0
   -6.8990    7.6510    9.7710 O   0  0  0  0  0  0  0  0  0  0  0  0
   -6.8742    2.9438    5.5603 C   0  0  0  0  0  0  0  0  0  0  0  0
   -6.9974    2.0541    4.5815 O   0  0  0  0  0  0  0  0  0  0  0  0
   -7.9677    2.1140    3.6755 C   0  0  0  0  0  0  0  0  0  0  0  0
   -8.0386    1.1411    2.6731 C   0  0  0  0  0  0  0  0  0  0  0  0
   -9.0485    1.1849    1.7050 C   0  0  0  0  0  0  0  0  0  0  0  0
   -9.0673    0.1821    0.7209 O   0  0  0  0  0  0  0  0  0  0  0  0
  -10.0182    0.0874   -0.3416 C   0  0  0  0  0  0  0  0  0  0  0  0
   -9.7912    1.1396   -1.3842 C   0  0  0  0  0  0  0  0  0  0  0  0
   -8.7684    1.8755   -1.3313 O   0  0  0  0  0  0  0  0  0  0  0  0
  -10.7297    1.2778   -2.4164 O   0  0  0  0  0  0  0  0  0  0  0  0
  -10.6807    2.2557   -3.4620 C   0  0  0  0  0  0  0  0  0  0  0  0
   -9.4502    2.0645   -4.3543 C   0  0  0  0  0  0  0  0  0  0  0  0
  -10.7672    3.6795   -2.9025 C   0  0  0  0  0  0  0  0  0  0  0  0
   -9.9999    2.2229    1.7493 C   0  0  0  0  0  0  0  0  0  0  0  0
   -9.9362    3.1999    2.7470 C   0  0  0  0  0  0  0  0  0  0  0  0
   -8.9220    3.1539    3.7189 C   0  0  0  0  0  0  0  0  0  0  0  0
   -8.8169    4.1152    4.7389 C   0  0  0  0  0  0  0  0  0  0  0  0
   -9.6310    5.0786    4.7960 O   0  0  0  0  0  0  0  0  0  0  0  0
  1  3  4  0
  1 14  4  0
  1  2  1  0
  3  4  4  0
  4  5  4  0
  5  6  4  0
  5 22  1  0
  6  7  1  0
  6 14  4  0
  7  8  1  0
  8  9  4  0
  8 12  4  0
  9 10  4  0
 10 11  4  0
 11 12  4  0
 12 13  1  0
 13 14  1  0
 13 15  1  6
 15 16  4  0
 15 20  4  0
 16 17  4  0
 17 18  4  0
 17 21  1  0
 18 19  4  0
 19 20  4  0
 23 24  4  0
 24 25  4  0
 25 26  4  0
 26 27  4  0
 27 28  1  0
 28 29  1  0
 29 30  1  0
 30 31  2  0
 30 32  1  0
 32 33  1  0
 33 34  1  0
 33 35  1  0
 27 36  4  0
 36 37  4  0
 37 38  4  0
 38 39  4  0
 39 40  2  0
 38 25  4  0
  2 23  4  0
  2 39  4  0
M  END
$$$$

     RDKit          3D

 45 52  0  0  0  0  0  0  0  0999 V2000
   -7.6410    4.9930    6.8080 C   0  0  0  0  0  0  0  0  0  1  0  0
   -7.7310    4.0530    5.7140 C   0  0  0  0  0  0  0  0  0  2  0  0
   -6.4520    5.6300    6.8680 N   0  0  0  0  0  0  0  0  0  0  0  0
   -6.2260    6.5240    7.8670 N   0  0  0  0  0  0  0  0  0  0  0  0
   -7.1930    6.7500    8.7820 C   0  0  0  0  0  0  0  0  0  0  0  0
   -8.4240    6.1170    8.7580 C   0  0  0  0  0  0  0  0  0  0  0  0
   -9.3950    6.3570    9.7450 N   0  0  0  0  0  0  0  0  0  0  0  0
  -10.5620    5.6840    9.7600 C   0  0  0  0  0  0  0  0  0  0  0  0
  -11.5770    5.6820   10.5960 N   0  0  0  0  0  0  0  0  0  0  0  0
  -12.4690    4.7490   10.1080 N   0  0  0  0  0  0  0  0  0  0  0  0
  -12.0160    4.1880    8.9920 N   0  0  0  0  0  0  0  0  0  0  0  0
  -10.8400    4.7900    8.7610 N   0  0  0  0  0  0  0  0  0  0  0  0
   -9.9950    4.4790    7.6090 C   0  0  0  0  0  0  0  0  0  0  0  0
   -8.6630    5.2070    7.7200 C   0  0  0  0  0  0  0  0  0  0  0  0
  -10.7490    4.8610    6.3730 C   0  0  0  0  0  0  0  0  0  0  0  0
  -11.0350    6.2020    6.1170 C   0  0  0  0  0  0  0  0  0  0  0  0
  -11.7370    6.5580    4.9650 C   0  0  0  0  0  0  0  0  0  0  0  0
  -12.1550    5.5730    4.0710 C   0  0  0  0  0  0  0  0  0  0  0  0
  -11.8700    4.2310    4.3270 C   0  0  0  0  0  0  0  0  0  0  0  0
  -11.1660    3.8760    5.4790 C   0  0  0  0  0  0  0  0  0  0  0  0
  -12.0160    7.8660    4.7150 O   0  0  0  0  0  0  0  0  0  0  0  0
   -6.8990    7.6510    9.7710 O   0  0  0  0  0  0  0  0  0  0  0  0
   -6.9649    2.9347    5.5381 N   0  0  0  0  0  0  0  0  0  0  0  0
   -7.5030    2.1297    4.6215 N   0  0  0  0  0  0  0  0  0  0  0  0
   -8.6401    2.7456    4.2620 C   0  0  0  0  0  0  0  0  0  0  0  0
   -9.6038    2.3663    3.3916 N   0  0  0  0  0  0  0  0  0  0  0  0
   -9.6005    1.1988    2.5010 C   0  0  0  0  0  0  0  0  0  0  0  0
   -9.1348   -0.0376    3.2256 C   0  0  0  0  0  0  0  0  0  0  0  0
   -7.9764   -0.7143    2.8129 C   0  0  0  0  0  0  0  0  0  0  0  0
   -7.5575   -1.8661    3.4833 C   0  0  0  0  0  0  0  0  0  0  0  0
   -8.2844   -2.3452    4.5761 C   0  0  0  0  0  0  0  0  0  0  0  0
   -9.4303   -1.6653    5.0160 C   0  0  0  0  0  0  0  0  0  0  0  0
  -10.2221   -2.1942    6.1753 C   0  0  0  0  0  0  0  0  0  0  0  0
   -9.8627   -0.5225    4.3252 C   0  0  0  0  0  0  0  0  0  0  0  0
  -10.4530    3.4363    3.4406 C   0  0  0  0  0  0  0  0  0  0  0  0
  -11.5981    3.7071    2.6977 C   0  0  0  0  0  0  0  0  0  0  0  0
  -12.0230    2.8812    1.8456 O   0  0  0  0  0  0  0  0  0  0  0  0
  -12.2524    4.8978    2.9120 N   0  0  0  0  0  0  0  0  0  0  0  0
  -13.4830    5.1991    2.1607 C   0  0  0  0  0  0  0  0  0  0  0  0
  -11.7130    5.8560    3.7526 C   0  0  0  0  0  0  0  0  0  0  0  0
  -12.2963    6.9704    3.8812 O   0  0  0  0  0  0  0  0  0  0  0  0
  -10.5387    5.6211    4.4371 N   0  0  0  0  0  0  0  0  0  0  0  0
   -9.9000    6.6983    5.2024 C   0  0  0  0  0  0  0  0  0  0  0  0
   -9.9873    4.3765    4.3360 C   0  0  0  0  0  0  0  0  0  0  0  0
   -8.8415    3.9002    4.8646 N   0  0  0  0  0  0  0  0  0  0  0  0
  1  3  4  0
  1 14  4  0
  1  2  1  0
  3  4  4  0
  4  5  4  0
  5  6  4  0
  5 22  1  0
  6  7  1  0
  6 14  4  0
  7  8  1  0
  8  9  4  0
  8 12  4  0
  9 10  4  0
 10 11  4  0
 11 12  4  0
 12 13  1  0
 13 14  1  0
 13 15  1  6
 15 16  4  0
 15 20  4  0
 16 17  4  0
 17 18  4  0
 17 21  1  0
 18 19  4  0
 19 20  4  0
 23 24  4  0
 24 25  4  0
 25 26  4  0
 26 27  1  0
 27 28  1  0
 28 29  4  0
 29 30  4  0
 30 31  4  0
 31 32  4  0
 32 33  1  0
 32 34  4  0
 26 35  4  0
 35 36  4  0
 36 37  2  0
 36 38  4  0
 38 39  1  0
 38 40  4  0
 40 41  2  0
 40 42  4  0
 42 43  1  0
 42 44  4  0
 44 45  4  0
 45 25  4  0
 34 28  4  0
 44 35  4  0
  2 23  4  0
  2 45  4  0
M  END
$$$$

     RDKit          3D

 45 51  0  0  0  0  0  0  0  0999 V2000
   -7.6410    4.9930    6.8080 C   0  0  0  0  0  0  0  0  0  1  0  0
   -7.7310    4.0530    5.7140 C   0  0  0  0  0  0  0  0  0  2  0  0
   -6.4520    5.6300    6.8680 N   0  0  0  0  0  0  0  0  0  0  0  0
   -6.2260    6.5240    7.8670 N   0  0  0  0  0  0  0  0  0  0  0  0
   -7.1930    6.7500    8.7820 C   0  0  0  0  0  0  0  0  0  0  0  0
   -8.4240    6.1170    8.7580 C   0  0  0  0  0  0  0  0  0  0  0  0
   -9.3950    6.3570    9.7450 N   0  0  0  0  0  0  0  0  0  0  0  0
  -10.5620    5.6840    9.7600 C   0  0  0  0  0  0  0  0  0  0  0  0
  -11.5770    5.6820   10.5960 N   0  0  0  0  0  0  0  0  0  0  0  0
  -12.4690    4.7490   10.1080 N   0  0  0  0  0  0  0  0  0  0  0  0
  -12.0160    4.1880    8.9920 N   0  0  0  0  0  0  0  0  0  0  0  0
  -10.8400    4.7900    8.7610 N   0  0  0  0  0  0  0  0  0  0  0  0
   -9.9950    4.4790    7.6090 C   0  0  0  0  0  0  0  0  0  0  0  0
   -8.6630    5.2070    7.7200 C   0  0  0  0  0  0  0  0  0  0  0  0
  -10.7490    4.8610    6.3730 C   0  0  0  0  0  0  0  0  0  0  0  0
  -11.0350    6.2020    6.1170 C   0  0  0  0  0  0  0  0  0  0  0  0
  -11.7370    6.5580    4.9650 C   0  0  0  0  0  0  0  0  0  0  0  0
  -12.1550    5.5730    4.0710 C   0  0  0  0  0  0  0  0  0  0  0  0
  -11.8700    4.2310    4.3270 C   0  0  0  0  0  0  0  0  0  0  0  0
  -11.1660    3.8760    5.4790 C   0  0  0  0  0  0  0  0  0  0  0  0
  -12.0160    7.8660    4.7150 O   0  0  0  0  0  0  0  0  0  0  0  0
   -6.8990    7.6510    9.7710 O   0  0  0  0  0  0  0  0  0  0  0  0
   -6.7098    3.2952    5.3407 O   0  0  0  0  0  0  0  0  0  0  0  0
   -6.7369    2.3310    4.4305 C   0  0  0  0  0  0  0  0  0  0  0  0
   -5.5621    1.6376    4.1239 C   0  0  0  0  0  0  0  0  0  0  0  0
   -5.5746    0.6052    3.1765 C   0  0  0  0  0  0  0  0  0  0  0  0
   -4.3268   -0.1726    2.8886 C   0  0  0  0  0  0  0  0  0  0  0  0
   -6.7812    0.2538    2.5552 C   0  0  0  0  0  0  0  0  0  0  0  0
   -7.9579    0.9457    2.8516 C   0  0  0  0  0  0  0  0  0  0  0  0
   -7.9443    1.9909    3.7894 C   0  0  0  0  0  0  0  0  0  0  0  0
   -9.0943    2.7244    4.1112 C   0  0  0  0  0  0  0  0  0  0  0  0
  -10.2000    2.4538    3.5705 O   0  0  0  0  0  0  0  0  0  0  0  0
   -9.0109    3.7772    5.0289 C   0  0  0  0  0  0  0  0  0  0  0  0
  -10.1385    4.5856    5.2310 O   0  0  0  0  0  0  0  0  0  0  0  0
  -10.1655    5.9859    4.9309 C   0  0  0  0  0  0  0  0  0  0  0  0
   -9.7743    6.2355    3.4987 C   0  0  0  0  0  0  0  0  0  0  0  0
   -8.8915    7.0943    3.2505 O   0  0  0  0  0  0  0  0  0  0  0  0
  -10.3813    5.4678    2.3916 C   0  0  0  0  0  0  0  0  0  0  0  0
  -11.7462    5.1181    2.4536 C   0  0  0  0  0  0  0  0  0  0  0  0
  -12.3293    4.3486    1.4497 C   0  0  0  0  0  0  0  0  0  0  0  0
  -11.5671    3.9088    0.3725 C   0  0  0  0  0  0  0  0  0  0  0  0
  -12.3011    2.9506   -0.8867 Cl  0  0  0  0  0  0  0  0  0  0  0  0
  -10.2130    4.2461    0.2957 C   0  0  0  0  0  0  0  0  0  0  0  0
   -9.6136    5.0138    1.2979 C   0  0  0  0  0  0  0  0  0  0  0  0
   -7.8919    5.2846    1.1907 Cl  0  0  0  0  0  0  0  0  0  0  0  0
  1  3  4  0
  1 14  4  0
  1  2  1  0
  3  4  4  0
  4  5  4  0
  5  6  4  0
  5 22  1  0
  6  7  1  0
  6 14  4  0
  7  8  1  0
  8  9  4  0
  8 12  4  0
  9 10  4  0
 10 11  4  0
 11 12  4  0
 12 13  1  0
 13 14  1  0
 13 15  1  6
 15 16  4  0
 15 20  4  0
 16 17  4  0
 17 18  4  0
 17 21  1  0
 18 19  4  0
 19 20  4  0
 23 24  4  0
 24 25  4  0
 25 26  4  0
 26 27  1  0
 26 28  4  0
 28 29  4  0
 29 30  4  0
 30 31  4  0
 31 32  2  0
 31 33  4  0
 33 34  1  0
 34 35  1  0
 35 36  1  0
 36 37  2  0
 36 38  1  0
 38 39  4  0
 39 40  4  0
 40 41  4  0
 41 42  1  0
 41 43  4  0
 43 44  4  0
 44 45  1  0
 44 38  4  0
 30 24  4  0
  2 23  4  0
  2 33  4  0
M  END
$$$$

     RDKit          3D

 32 37  0  0  0  0  0  0  0  0999 V2000
   -7.6410    4.9930    6.8080 C   0  0  0  0  0  0  0  0  0  1  0  0
   -7.7310    4.0530    5.7140 C   0  0  0  0  0  0  0  0  0  2  0  0
   -6.4520    5.6300    6.8680 N   0  0  0  0  0  0  0  0  0  0  0  0
   -6.2260    6.5240    7.8670 N   0  0  0  0  0  0  0  0  0  0  0  0
   -7.1930    6.7500    8.7820 C   0  0  0  0  0  0  0  0  0  0  0  0
   -8.4240    6.1170    8.7580 C   0  0  0  0  0  0  0  0  0  0  0  0
   -9.3950    6.3570    9.7450 N   0  0  0  0  0  0  0  0  0  0  0  0
  -10.5620    5.6840    9.7600 C   0  0  0  0  0  0  0  0  0  0  0  0
  -11.5770    5.6820   10.5960 N   0  0  0  0  0  0  0  0  0  0  0  0
  -12.4690    4.7490   10.1080 N   0  0  0  0  0  0  0  0  0  0  0  0
  -12.0160    4.1880    8.9920 N   0  0  0  0  0  0  0  0  0  0  0  0
  -10.8400    4.7900    8.7610 N   0  0  0  0  0  0  0  0  0  0  0  0
   -9.9950    4.4790    7.6090 C   0  0  0  0  0  0  0  0  0  0  0  0
   -8.6630    5.2070    7.7200 C   0  0  0  0  0  0  0  0  0  0  0  0
  -10.7490    4.8610    6.3730 C   0  0  0  0  0  0  0  0  0  0  0  0
  -11.0350    6.2020    6.1170 C   0  0  0  0  0  0  0  0  0  0  0  0
  -11.7370    6.5580    4.9650 C   0  0  0  0  0  0  0  0  0  0  0  0
  -12.1550    5.5730    4.0710 C   0  0  0  0  0  0  0  0  0  0  0  0
  -11.8700    4.2310    4.3270 C   0  0  0  0  0  0  0  0  0  0  0  0
  -11.1660    3.8760    5.4790 C   0  0  0  0  0  0  0  0  0  0  0  0
  -12.0160    7.8660    4.7150 O   0  0  0  0  0  0  0  0  0  0  0  0
   -6.8990    7.6510    9.7710 O   0  0  0  0  0  0  0  0  0  0  0  0
   -6.9167    2.9635    5.6279 N   0  0  0  0  0  0  0  0  0  0  0  0
   -6.9957    2.0303    4.6813 N   0  0  0  0  0  0  0  0  0  0  0  0
   -7.9551    2.0749    3.7213 C   0  0  0  0  0  0  0  0  0  0  0  0
   -7.9921    1.1761    2.8370 O   0  0  0  0  0  0  0  0  0  0  0  0
   -8.8899    3.1237    3.7142 C   0  0  0  0  0  0  0  0  0  0  0  0
   -8.7871    4.1331    4.7007 C   0  0  0  0  0  0  0  0  0  0  0  0
   -9.7615    5.2987    4.7269 C   0  0  0  0  0  0  0  0  0  0  0  0
  -10.4563    5.5225    3.3833 C   0  0  0  0  0  0  0  0  0  0  0  0
  -11.0288    4.2067    2.8663 C   0  0  0  0  0  0  0  0  0  0  0  0
   -9.9004    3.2120    2.5866 C   0  0  0  0  0  0  0  0  0  0  0  0
  1  3  4  0
  1 14  4  0
  1  2  1  0
  3  4  4  0
  4  5  4  0
  5  6  4  0
  5 22  1  0
  6  7  1  0
  6 14  4  0
  7  8  1  0
  8  9  4  0
  8 12  4  0
  9 10  4  0
 10 11  4  0
 11 12  4  0
 12 13  1  0
 13 14  1  0
 13 15  1  6
 15 16  4  0
 15 20  4  0
 16 17  4  0
 17 18  4  0
 17 21  1  0
 18 19  4  0
 19 20  4  0
 23 24  4  0
 24 25  4  0
 25 26  2  0
 25 27  4  0
 27 28  4  0
 28 29  1  0
 29 30  1  0
 30 31  1  0
 31 32  1  0
 32 27  1  0
  2 23  4  0
  2 28  4  0
M  END
$$$$

     RDKit          3D

 40 46  0  0  0  0  0  0  0  0999 V2000
   -7.6410    4.9930    6.8080 C   0  0  0  0  0  0  0  0  0  1  0  0
   -7.7310    4.0530    5.7140 C   0  0  0  0  0  0  0  0  0  2  0  0
   -6.4520    5.6300    6.8680 N   0  0  0  0  0  0  0  0  0  0  0  0
   -6.2260    6.5240    7.8670 N   0  0  0  0  0  0  0  0  0  0  0  0
   -7.1930    6.7500    8.7820 C   0  0  0  0  0  0  0  0  0  0  0  0
   -8.4240    6.1170    8.7580 C   0  0  0  0  0  0  0  0  0  0  0  0
   -9.3950    6.3570    9.7450 N   0  0  0  0  0  0  0  0  0  0  0  0
  -10.5620    5.6840    9.7600 C   0  0  0  0  0  0  0  0  0  0  0  0
  -11.5770    5.6820   10.5960 N   0  0  0  0  0  0  0  0  0  0  0  0
  -12.4690    4.7490   10.1080 N   0  0  0  0  0  0  0  0  0  0  0  0
  -12.0160    4.1880    8.9920 N   0  0  0  0  0  0  0  0  0  0  0  0
  -10.8400    4.7900    8.7610 N   0  0  0  0  0  0  0  0  0  0  0  0
   -9.9950    4.4790    7.6090 C   0  0  0  0  0  0  0  0  0  0  0  0
   -8.6630    5.2070    7.7200 C   0  0  0  0  0  0  0  0  0  0  0  0
  -10.7490    4.8610    6.3730 C   0  0  0  0  0  0  0  0  0  0  0  0
  -11.0350    6.2020    6.1170 C   0  0  0  0  0  0  0  0  0  0  0  0
  -11.7370    6.5580    4.9650 C   0  0  0  0  0  0  0  0  0  0  0  0
  -12.1550    5.5730    4.0710 C   0  0  0  0  0  0  0  0  0  0  0  0
  -11.8700    4.2310    4.3270 C   0  0  0  0  0  0  0  0  0  0  0  0
  -11.1660    3.8760    5.4790 C   0  0  0  0  0  0  0  0  0  0  0  0
  -12.0160    7.8660    4.7150 O   0  0  0  0  0  0  0  0  0  0  0  0
   -6.8990    7.6510    9.7710 O   0  0  0  0  0  0  0  0  0  0  0  0
   -6.8005    3.1170    5.3549 N   0  0  0  0  0  0  0  0  0  0  0  0
   -7.3774    2.4490    4.3407 C   0  0  0  0  0  0  0  0  0  0  0  0
   -6.9189    1.4119    3.6052 N   0  0  0  0  0  0  0  0  0  0  0  0
   -5.6747    0.6687    3.7654 C   0  0  0  0  0  0  0  0  0  0  0  0
   -7.9822    1.1374    2.7995 C   0  0  0  0  0  0  0  0  0  0  0  0
   -8.1311    0.1055    1.8731 C   0  0  0  0  0  0  0  0  0  0  0  0
   -9.3693   -0.0053    1.2105 C   0  0  0  0  0  0  0  0  0  0  0  0
  -10.4269    0.8900    1.4991 C   0  0  0  0  0  0  0  0  0  0  0  0
  -10.2612    1.9157    2.4487 C   0  0  0  0  0  0  0  0  0  0  0  0
   -9.0170    2.0208    3.0616 C   0  0  0  0  0  0  0  0  0  0  0  0
   -8.5975    2.8366    4.0380 N   0  0  0  0  0  0  0  0  0  0  0  0
   -8.9093    3.8494    4.8532 C   0  0  0  0  0  0  0  0  0  0  0  0
  -10.1523    4.6928    4.7622 C   0  0  0  0  0  0  0  0  0  0  0  0
  -10.2517    5.4037    3.4351 C   0  0  0  0  0  0  0  0  0  0  0  0
  -11.2111    5.1063    2.6721 O   0  0  0  0  0  0  0  0  0  0  0  0
   -9.3184    6.4313    3.0297 N   0  0  0  0  0  0  0  0  0  0  0  0
   -8.2970    6.9478    3.9465 C   0  0  0  0  0  0  0  0  0  0  0  0
   -9.4206    6.9824    1.6744 C   0  0  0  0  0  0  0  0  0  0  0  0
  1  3  4  0
  1 14  4  0
  1  2  1  0
  3  4  4  0
  4  5  4  0
  5  6  4  0
  5 22  1  0
  6  7  1  0
  6 14  4  0
  7  8  1  0
  8  9  4  0
  8 12  4  0
  9 10  4  0
 10 11  4  0
 11 12  4  0
 12 13  1  0
 13 14  1  0
 13 15  1  6
 15 16  4  0
 15 20  4  0
 16 17  4  0
 17 18  4  0
 17 21  1  0
 18 19  4  0
 19 20  4  0
 23 24  4  0
 24 25  4  0
 25 26  1  0
 25 27  4  0
 27 28  4  0
 28 29  4  0
 29 30  4  0
 30 31  4  0
 31 32  4  0
 32 33  4  0
 33 34  4  0
 34 35  1  0
 35 36  1  0
 36 37  2  0
 36 38  1  0
 38 39  1  0
 38 40  1  0
 33 24  4  0
 32 27  4  0
  2 23  4  0
  2 34  4  0
M  END
$$$$

     RDKit          3D

 40 46  0  0  0  0  0  0  0  0999 V2000
   -7.6410    4.9930    6.8080 C   0  0  0  0  0  0  0  0  0  1  0  0
   -7.7310    4.0530    5.7140 C   0  0  0  0  0  0  0  0  0  2  0  0
   -6.4520    5.6300    6.8680 N   0  0  0  0  0  0  0  0  0  0  0  0
   -6.2260    6.5240    7.8670 N   0  0  0  0  0  0  0  0  0  0  0  0
   -7.1930    6.7500    8.7820 C   0  0  0  0  0  0  0  0  0  0  0  0
   -8.4240    6.1170    8.7580 C   0  0  0  0  0  0  0  0  0  0  0  0
   -9.3950    6.3570    9.7450 N   0  0  0  0  0  0  0  0  0  0  0  0
  -10.5620    5.6840    9.7600 C   0  0  0  0  0  0  0  0  0  0  0  0
  -11.5770    5.6820   10.5960 N   0  0  0  0  0  0  0  0  0  0  0  0
  -12.4690    4.7490   10.1080 N   0  0  0  0  0  0  0  0  0  0  0  0
  -12.0160    4.1880    8.9920 N   0  0  0  0  0  0  0  0  0  0  0  0
  -10.8400    4.7900    8.7610 N   0  0  0  0  0  0  0  0  0  0  0  0
   -9.9950    4.4790    7.6090 C   0  0  0  0  0  0  0  0  0  0  0  0
   -8.6630    5.2070    7.7200 C   0  0  0  0  0  0  0  0  0  0  0  0
  -10.7490    4.8610    6.3730 C   0  0  0  0  0  0  0  0  0  0  0  0
  -11.0350    6.2020    6.1170 C   0  0  0  0  0  0  0  0  0  0  0  0
  -11.7370    6.5580    4.9650 C   0  0  0  0  0  0  0  0  0  0  0  0
  -12.1550    5.5730    4.0710 C   0  0  0  0  0  0  0  0  0  0  0  0
  -11.8700    4.2310    4.3270 C   0  0  0  0  0  0  0  0  0  0  0  0
  -11.1660    3.8760    5.4790 C   0  0  0  0  0  0  0  0  0  0  0  0
  -12.0160    7.8660    4.7150 O   0  0  0  0  0  0  0  0  0  0  0  0
   -6.8990    7.6510    9.7710 O   0  0  0  0  0  0  0  0  0  0  0  0
   -6.7888    3.1451    5.3209 N   0  0  0  0  0  0  0  0  0  0  0  0
   -7.3429    2.5209    4.2661 C   0  0  0  0  0  0  0  0  0  0  0  0
   -6.7611    1.7421    3.3260 N   0  0  0  0  0  0  0  0  0  0  0  0
   -5.3808    1.2735    3.2723 C   0  0  0  0  0  0  0  0  0  0  0  0
   -7.6994    1.7236    2.3386 C   0  0  0  0  0  0  0  0  0  0  0  0
   -7.6019    1.1789    1.0576 C   0  0  0  0  0  0  0  0  0  0  0  0
   -8.6664    1.4107    0.1648 C   0  0  0  0  0  0  0  0  0  0  0  0
   -9.7775    2.1961    0.5519 C   0  0  0  0  0  0  0  0  0  0  0  0
   -9.8453    2.7583    1.8405 C   0  0  0  0  0  0  0  0  0  0  0  0
   -8.7973    2.4786    2.7131 C   0  0  0  0  0  0  0  0  0  0  0  0
   -8.5419    2.9540    3.9397 N   0  0  0  0  0  0  0  0  0  0  0  0
   -8.8837    3.9071    4.8131 C   0  0  0  0  0  0  0  0  0  0  0  0
  -10.0052    4.8920    4.6158 C   0  0  0  0  0  0  0  0  0  0  0  0
   -9.6556    5.9762    3.6229 C   0  0  0  0  0  0  0  0  0  0  0  0
   -8.5327    5.9558    3.0447 O   0  0  0  0  0  0  0  0  0  0  0  0
  -10.5870    7.0377    3.3240 N   0  0  0  0  0  0  0  0  0  0  0  0
  -10.2160    8.0577    2.3381 C   0  0  0  0  0  0  0  0  0  0  0  0
  -11.8850    7.1094    4.0034 C   0  0  0  0  0  0  0  0  0  0  0  0
  1  3  4  0
  1 14  4  0
  1  2  1  0
  3  4  4  0
  4  5  4  0
  5  6  4  0
  5 22  1  0
  6  7  1  0
  6 14  4  0
  7  8  1  0
  8  9  4  0
  8 12  4  0
  9 10  4  0
 10 11  4  0
 11 12  4  0
 12 13  1  0
 13 14  1  0
 13 15  1  6
 15 16  4  0
 15 20  4  0
 16 17  4  0
 17 18  4  0
 17 21  1  0
 18 19  4  0
 19 20  4  0
 23 24  4  0
 24 25  4  0
 25 26  1  0
 25 27  4  0
 27 28  4  0
 28 29  4  0
 29 30  4  0
 30 31  4  0
 31 32  4  0
 32 33  4  0
 33 34  4  0
 34 35  1  0
 35 36  1  0
 36 37  2  0
 36 38  1  0
 38 39  1  0
 38 40  1  0
 33 24  4  0
 32 27  4  0
  2 23  4  0
  2 34  4  0
M  END
$$$$

     RDKit          3D

 43 49  0  0  0  0  0  0  0  0999 V2000
   -7.6410    4.9930    6.8080 C   0  0  0  0  0  0  0  0  0  1  0  0
   -7.7310    4.0530    5.7140 C   0  0  0  0  0  0  0  0  0  2  0  0
   -6.4520    5.6300    6.8680 N   0  0  0  0  0  0  0  0  0  0  0  0
   -6.2260    6.5240    7.8670 N   0  0  0  0  0  0  0  0  0  0  0  0
   -7.1930    6.7500    8.7820 C   0  0  0  0  0  0  0  0  0  0  0  0
   -8.4240    6.1170    8.7580 C   0  0  0  0  0  0  0  0  0  0  0  0
   -9.3950    6.3570    9.7450 N   0  0  0  0  0  0  0  0  0  0  0  0
  -10.5620    5.6840    9.7600 C   0  0  0  0  0  0  0  0  0  0  0  0
  -11.5770    5.6820   10.5960 N   0  0  0  0  0  0  0  0  0  0  0  0
  -12.4690    4.7490   10.1080 N   0  0  0  0  0  0  0  0  0  0  0  0
  -12.0160    4.1880    8.9920 N   0  0  0  0  0  0  0  0  0  0  0  0
  -10.8400    4.7900    8.7610 N   0  0  0  0  0  0  0  0  0  0  0  0
   -9.9950    4.4790    7.6090 C   0  0  0  0  0  0  0  0  0  0  0  0
   -8.6630    5.2070    7.7200 C   0  0  0  0  0  0  0  0  0  0  0  0
  -10.7490    4.8610    6.3730 C   0  0  0  0  0  0  0  0  0  0  0  0
  -11.0350    6.2020    6.1170 C   0  0  0  0  0  0  0  0  0  0  0  0
  -11.7370    6.5580    4.9650 C   0  0  0  0  0  0  0  0  0  0  0  0
  -12.1550    5.5730    4.0710 C   0  0  0  0  0  0  0  0  0  0  0  0
  -11.8700    4.2310    4.3270 C   0  0  0  0  0  0  0  0  0  0  0  0
  -11.1660    3.8760    5.4790 C   0  0  0  0  0  0  0  0  0  0  0  0
  -12.0160    7.8660    4.7150 O   0  0  0  0  0  0  0  0  0  0  0  0
   -6.8990    7.6510    9.7710 O   0  0  0  0  0  0  0  0  0  0  0  0
   -6.8481    3.0835    5.3796 N   0  0  0  0  0  0  0  0  0  0  0  0
   -7.3103    2.3909    4.3457 N   0  0  0  0  0  0  0  0  0  0  0  0
   -8.5147    2.9066    4.0345 C   0  0  0  0  0  0  0  0  0  0  0  0
   -9.5174    2.3390    2.6613 S   0  0  0  0  0  0  0  0  0  0  0  0
   -8.7654    3.5060    1.4833 C   0  0  0  0  0  0  0  0  0  0  0  0
   -9.4092    3.3490    0.1473 C   0  0  0  0  0  0  0  0  0  0  0  0
   -8.7562    2.9595   -0.9640 N   0  0  0  0  0  0  0  0  0  0  0  0
   -9.7512    2.9762   -1.8778 C   0  0  0  0  0  0  0  0  0  1  0  0
   -9.5679    2.6196   -3.3017 C   0  0  0  0  0  0  0  0  0  2  0  0
  -10.6538    2.6671   -4.1912 C   0  0  0  0  0  0  0  0  0  0  0  0
  -10.4803    2.3305   -5.5347 C   0  0  0  0  0  0  0  0  0  0  0  0
   -9.2248    1.9430   -6.0067 C   0  0  0  0  0  0  0  0  0  0  0  0
   -8.1231    1.8873   -5.1364 C   0  0  0  0  0  0  0  0  0  0  0  0
   -6.8299    1.4866   -5.6262 N   0  0  0  0  0  0  0  0  0  0  0  0
   -5.8463    1.4327   -4.8591 O   0  0  0  0  0  0  0  0  0  0  0  0
   -6.6558    1.1554   -6.9505 O   0  0  0  0  0  0  0  0  0  0  0  0
   -8.3051    2.2284   -3.7823 C   0  0  0  0  0  0  0  0  0  0  0  0
  -10.9307    3.3549   -1.3440 N   0  0  0  0  0  0  0  0  0  0  0  0
  -10.6767    3.5767   -0.0909 O   0  0  0  0  0  0  0  0  0  0  0  0
   -8.8360    3.9179    4.8578 N   0  0  0  0  0  0  0  0  0  0  0  0
   -9.9286    4.7932    4.7417 N   0  0  0  0  0  0  0  0  0  0  0  0
  1  3  4  0
  1 14  4  0
  1  2  1  0
  3  4  4  0
  4  5  4  0
  5  6  4  0
  5 22  1  0
  6  7  1  0
  6 14  4  0
  7  8  1  0
  8  9  4  0
  8 12  4  0
  9 10  4  0
 10 11  4  0
 11 12  4  0
 12 13  1  0
 13 14  1  0
 13 15  1  6
 15 16  4  0
 15 20  4  0
 16 17  4  0
 17 18  4  0
 17 21  1  0
 18 19  4  0
 19 20  4  0
 23 24  4  0
 24 25  4  0
 25 26  1  0
 26 27  1  0
 27 28  1  0
 28 29  4  0
 29 30  4  0
 30 31  1  0
 31 32  4  0
 32 33  4  0
 33 34  4  0
 34 35  4  0
 35 36  1  0
 36 37  2  0
 36 38  1  0
 35 39  4  0
 30 40  4  0
 40 41  4  0
 25 42  4  0
 42 43  1  0
 41 28  4  0
 39 31  4  0
  2 23  4  0
  2 42  4  0
M  CHG  2  36   1  38  -1
M  END
$$$$

     RDKit          3D

 43 49  0  0  0  0  0  0  0  0999 V2000
   -7.6410    4.9930    6.8080 C   0  0  0  0  0  0  0  0  0  1  0  0
   -7.7310    4.0530    5.7140 C   0  0  0  0  0  0  0  0  0  2  0  0
   -6.4520    5.6300    6.8680 N   0  0  0  0  0  0  0  0  0  0  0  0
   -6.2260    6.5240    7.8670 N   0  0  0  0  0  0  0  0  0  0  0  0
   -7.1930    6.7500    8.7820 C   0  0  0  0  0  0  0  0  0  0  0  0
   -8.4240    6.1170    8.7580 C   0  0  0  0  0  0  0  0  0  0  0  0
   -9.3950    6.3570    9.7450 N   0  0  0  0  0  0  0  0  0  0  0  0
  -10.5620    5.6840    9.7600 C   0  0  0  0  0  0  0  0  0  0  0  0
  -11.5770    5.6820   10.5960 N   0  0  0  0  0  0  0  0  0  0  0  0
  -12.4690    4.7490   10.1080 N   0  0  0  0  0  0  0  0  0  0  0  0
  -12.0160    4.1880    8.9920 N   0  0  0  0  0  0  0  0  0  0  0  0
  -10.8400    4.7900    8.7610 N   0  0  0  0  0  0  0  0  0  0  0  0
   -9.9950    4.4790    7.6090 C   0  0  0  0  0  0  0  0  0  0  0  0
   -8.6630    5.2070    7.7200 C   0  0  0  0  0  0  0  0  0  0  0  0
  -10.7490    4.8610    6.3730 C   0  0  0  0  0  0  0  0  0  0  0  0
  -11.0350    6.2020    6.1170 C   0  0  0  0  0  0  0  0  0  0  0  0
  -11.7370    6.5580    4.9650 C   0  0  0  0  0  0  0  0  0  0  0  0
  -12.1550    5.5730    4.0710 C   0  0  0  0  0  0  0  0  0  0  0  0
  -11.8700    4.2310    4.3270 C   0  0  0  0  0  0  0  0  0  0  0  0
  -11.1660    3.8760    5.4790 C   0  0  0  0  0  0  0  0  0  0  0  0
  -12.0160    7.8660    4.7150 O   0  0  0  0  0  0  0  0  0  0  0  0
   -6.8990    7.6510    9.7710 O   0  0  0  0  0  0  0  0  0  0  0  0
   -6.8524    3.0767    5.3873 N   0  0  0  0  0  0  0  0  0  0  0  0
   -7.3089    2.3921    4.3455 N   0  0  0  0  0  0  0  0  0  0  0  0
   -8.5047    2.9204    4.0218 C   0  0  0  0  0  0  0  0  0  0  0  0
   -9.4955    2.3681    2.6338 S   0  0  0  0  0  0  0  0  0  0  0  0
   -8.7170    3.5323    1.4702 C   0  0  0  0  0  0  0  0  0  0  0  0
   -9.3377    3.3796    0.1228 C   0  0  0  0  0  0  0  0  0  0  0  0
   -8.6667    2.9885   -0.9771 N   0  0  0  0  0  0  0  0  0  0  0  0
   -9.6448    3.0109   -1.9087 C   0  0  0  0  0  0  0  0  0  1  0  0
   -9.4368    2.6560   -3.3296 C   0  0  0  0  0  0  0  0  0  2  0  0
   -8.1675    2.2626   -3.7843 C   0  0  0  0  0  0  0  0  0  0  0  0
   -7.9709    1.9283   -5.1252 C   0  0  0  0  0  0  0  0  0  0  0  0
   -9.0352    1.9819   -6.0272 C   0  0  0  0  0  0  0  0  0  0  0  0
  -10.3146    2.3722   -5.5966 C   0  0  0  0  0  0  0  0  0  0  0  0
  -11.4099    2.4261   -6.5292 N   0  0  0  0  0  0  0  0  0  0  0  0
  -12.5496    2.7727   -6.1548 O   0  0  0  0  0  0  0  0  0  0  0  0
  -11.2192    2.0959   -7.8515 O   0  0  0  0  0  0  0  0  0  0  0  0
  -10.5058    2.7083   -4.2423 C   0  0  0  0  0  0  0  0  0  0  0  0
  -10.8320    3.3943   -1.3955 N   0  0  0  0  0  0  0  0  0  0  0  0
  -10.5996    3.6133   -0.1378 O   0  0  0  0  0  0  0  0  0  0  0  0
   -8.8262    3.9315    4.8454 N   0  0  0  0  0  0  0  0  0  0  0  0
   -9.9091    4.8174    4.7213 N   0  0  0  0  0  0  0  0  0  0  0  0
  1  3  4  0
  1 14  4  0
  1  2  1  0
  3  4  4  0
  4  5  4  0
  5  6  4  0
  5 22  1  0
  6  7  1  0
  6 14  4  0
  7  8  1  0
  8  9  4  0
  8 12  4  0
  9 10  4  0
 10 11  4  0
 11 12  4  0
 12 13  1  0
 13 14  1  0
 13 15  1  6
 15 16  4  0
 15 20  4  0
 16 17  4  0
 17 18  4  0
 17 21  1  0
 18 19  4  0
 19 20  4  0
 23 24  4  0
 24 25  4  0
 25 26  1  0
 26 27  1  0
 27 28  1  0
 28 29  4  0
 29 30  4  0
 30 31  1  0
 31 32  4  0
 32 33  4  0
 33 34  4  0
 34 35  4  0
 35 36  1  0
 36 37  2  0
 36 38  1  0
 35 39  4  0
 30 40  4  0
 40 41  4  0
 25 42  4  0
 42 43  1  0
 41 28  4  0
 39 31  4  0
  2 23  4  0
  2 42  4  0
M  CHG  2  36   1  38  -1
M  END
$$$$

     RDKit          3D

 39 44  0  0  0  0  0  0  0  0999 V2000
   -7.6410    4.9930    6.8080 C   0  0  0  0  0  0  0  0  0  1  0  0
   -7.7310    4.0530    5.7140 C   0  0  0  0  0  0  0  0  0  2  0  0
   -6.4520    5.6300    6.8680 N   0  0  0  0  0  0  0  0  0  0  0  0
   -6.2260    6.5240    7.8670 N   0  0  0  0  0  0  0  0  0  0  0  0
   -7.1930    6.7500    8.7820 C   0  0  0  0  0  0  0  0  0  0  0  0
   -8.4240    6.1170    8.7580 C   0  0  0  0  0  0  0  0  0  0  0  0
   -9.3950    6.3570    9.7450 N   0  0  0  0  0  0  0  0  0  0  0  0
  -10.5620    5.6840    9.7600 C   0  0  0  0  0  0  0  0  0  0  0  0
  -11.5770    5.6820   10.5960 N   0  0  0  0  0  0  0  0  0  0  0  0
  -12.4690    4.7490   10.1080 N   0  0  0  0  0  0  0  0  0  0  0  0
  -12.0160    4.1880    8.9920 N   0  0  0  0  0  0  0  0  0  0  0  0
  -10.8400    4.7900    8.7610 N   0  0  0  0  0  0  0  0  0  0  0  0
   -9.9950    4.4790    7.6090 C   0  0  0  0  0  0  0  0  0  0  0  0
   -8.6630    5.2070    7.7200 C   0  0  0  0  0  0  0  0  0  0  0  0
  -10.7490    4.8610    6.3730 C   0  0  0  0  0  0  0  0  0  0  0  0
  -11.0350    6.2020    6.1170 C   0  0  0  0  0  0  0  0  0  0  0  0
  -11.7370    6.5580    4.9650 C   0  0  0  0  0  0  0  0  0  0  0  0
  -12.1550    5.5730    4.0710 C   0  0  0  0  0  0  0  0  0  0  0  0
  -11.8700    4.2310    4.3270 C   0  0  0  0  0  0  0  0  0  0  0  0
  -11.1660    3.8760    5.4790 C   0  0  0  0  0  0  0  0  0  0  0  0
  -12.0160    7.8660    4.7150 O   0  0  0  0  0  0  0  0  0  0  0  0
   -6.8990    7.6510    9.7710 O   0  0  0  0  0  0  0  0  0  0  0  0
   -6.8642    3.0600    5.4058 N   0  0  0  0  0  0  0  0  0  0  0  0
   -7.3172    2.3792    4.3603 N   0  0  0  0  0  0  0  0  0  0  0  0
   -8.4950    2.9317    4.0104 C   0  0  0  0  0  0  0  0  0  0  0  0
   -9.4841    2.3773    2.6149 S   0  0  0  0  0  0  0  0  0  0  0  0
   -8.5936    3.3227    1.3166 C   0  0  0  0  0  0  0  0  0  0  0  0
   -8.8553    4.8276    1.4412 C   0  0  0  0  0  0  0  0  0  0  0  0
   -7.1321    2.9335    1.2717 C   0  0  0  0  0  0  0  0  0  0  0  0
   -6.8420    1.7677    0.8875 O   0  0  0  0  0  0  0  0  0  0  0  0
   -6.0820    3.8340    1.6723 N   0  0  0  0  0  0  0  0  0  0  0  0
   -4.6633    3.4943    1.5627 C   0  0  0  0  0  0  0  0  0  0  0  0
   -4.0293    4.2166    0.3678 C   0  0  0  0  0  0  0  0  0  0  0  0
   -4.6155    3.7686   -0.9616 C   0  0  0  0  0  0  0  0  0  0  0  0
   -3.4703    3.9719   -1.9021 C   0  0  0  0  0  0  0  0  0  0  0  0
   -2.2556    3.8278   -1.0035 C   0  0  0  0  0  0  0  0  0  0  0  0
   -2.6410    3.9759    0.3458 O   0  0  0  0  0  0  0  0  0  0  0  0
   -8.8141    3.9469    4.8305 N   0  0  0  0  0  0  0  0  0  0  0  0
   -9.9087    4.8205    4.7215 N   0  0  0  0  0  0  0  0  0  0  0  0
  1  3  4  0
  1 14  4  0
  1  2  1  0
  3  4  4  0
  4  5  4  0
  5  6  4  0
  5 22  1  0
  6  7  1  0
  6 14  4  0
  7  8  1  0
  8  9  4  0
  8 12  4  0
  9 10  4  0
 10 11  4  0
 11 12  4  0
 12 13  1  0
 13 14  1  0
 13 15  1  6
 15 16  4  0
 15 20  4  0
 16 17  4  0
 17 18  4  0
 17 21  1  0
 18 19  4  0
 19 20  4  0
 23 24  4  0
 24 25  4  0
 25 26  1  0
 26 27  1  0
 27 28  1  0
 27 29  1  0
 29 30  2  0
 29 31  1  0
 31 32  1  0
 32 33  1  0
 33 34  1  0
 34 35  1  0
 35 36  1  0
 36 37  1  0
 25 38  4  0
 38 39  1  0
 37 33  1  0
  2 23  4  0
  2 38  4  0
M  END
$$$$

     RDKit          3D

 45 50  0  0  0  0  0  0  0  0999 V2000
   -7.6410    4.9930    6.8080 C   0  0  0  0  0  0  0  0  0  1  0  0
   -7.7310    4.0530    5.7140 C   0  0  0  0  0  0  0  0  0  2  0  0
   -6.4520    5.6300    6.8680 N   0  0  0  0  0  0  0  0  0  0  0  0
   -6.2260    6.5240    7.8670 N   0  0  0  0  0  0  0  0  0  0  0  0
   -7.1930    6.7500    8.7820 C   0  0  0  0  0  0  0  0  0  0  0  0
   -8.4240    6.1170    8.7580 C   0  0  0  0  0  0  0  0  0  0  0  0
   -9.3950    6.3570    9.7450 N   0  0  0  0  0  0  0  0  0  0  0  0
  -10.5620    5.6840    9.7600 C   0  0  0  0  0  0  0  0  0  0  0  0
  -11.5770    5.6820   10.5960 N   0  0  0  0  0  0  0  0  0  0  0  0
  -12.4690    4.7490   10.1080 N   0  0  0  0  0  0  0  0  0  0  0  0
  -12.0160    4.1880    8.9920 N   0  0  0  0  0  0  0  0  0  0  0  0
  -10.8400    4.7900    8.7610 N   0  0  0  0  0  0  0  0  0  0  0  0
   -9.9950    4.4790    7.6090 C   0  0  0  0  0  0  0  0  0  0  0  0
   -8.6630    5.2070    7.7200 C   0  0  0  0  0  0  0  0  0  0  0  0
  -10.7490    4.8610    6.3730 C   0  0  0  0  0  0  0  0  0  0  0  0
  -11.0350    6.2020    6.1170 C   0  0  0  0  0  0  0  0  0  0  0  0
  -11.7370    6.5580    4.9650 C   0  0  0  0  0  0  0  0  0  0  0  0
  -12.1550    5.5730    4.0710 C   0  0  0  0  0  0  0  0  0  0  0  0
  -11.8700    4.2310    4.3270 C   0  0  0  0  0  0  0  0  0  0  0  0
  -11.1660    3.8760    5.4790 C   0  0  0  0  0  0  0  0  0  0  0  0
  -12.0160    7.8660    4.7150 O   0  0  0  0  0  0  0  0  0  0  0  0
   -6.8990    7.6510    9.7710 O   0  0  0  0  0  0  0  0  0  0  0  0
   -6.8767    3.0661    5.3819 N   0  0  0  0  0  0  0  0  0  0  0  0
   -7.3521    2.3664    4.3631 N   0  0  0  0  0  0  0  0  0  0  0  0
   -8.5503    2.8928    4.0524 C   0  0  0  0  0  0  0  0  0  0  0  0
   -9.5834    2.2661    2.7231 S   0  0  0  0  0  0  0  0  0  0  0  0
   -8.7251    3.1692    1.3865 C   0  0  0  0  0  0  0  0  0  0  0  0
   -8.1864    2.1916    0.3915 C   0  0  0  0  0  0  0  0  0  0  0  0
   -8.6270    2.2032   -0.7896 O   0  0  0  0  0  0  0  0  0  0  0  0
   -7.1494    1.2754    0.7759 N   0  0  0  0  0  0  0  0  0  0  0  0
   -6.7199    0.1685   -0.0374 C   0  0  0  0  0  0  0  0  0  0  0  0
   -7.6567   -0.5924   -0.7612 C   0  0  0  0  0  0  0  0  0  0  0  0
   -7.2488   -1.6937   -1.5340 C   0  0  0  0  0  0  0  0  0  0  0  0
   -8.2523   -2.4649   -2.3550 C   0  0  0  0  0  0  0  0  0  0  0  0
   -8.3725   -1.8720   -3.5981 F   0  0  0  0  0  0  0  0  0  0  0  0
   -9.4911   -2.4705   -1.7367 F   0  0  0  0  0  0  0  0  0  0  0  0
   -7.8456   -3.7784   -2.5191 F   0  0  0  0  0  0  0  0  0  0  0  0
   -5.8833   -2.0122   -1.5996 C   0  0  0  0  0  0  0  0  0  0  0  0
   -4.9498   -1.2760   -0.8675 C   0  0  0  0  0  0  0  0  0  0  0  0
   -5.3603   -0.1956   -0.0804 C   0  0  0  0  0  0  0  0  0  0  0  0
   -4.1406    0.7143    0.8018 Cl  0  0  0  0  0  0  0  0  0  0  0  0
   -8.8710    3.9205    4.8655 N   0  0  0  0  0  0  0  0  0  0  0  0
  -10.0340    4.8112    4.7598 C   0  0  0  0  0  0  0  0  0  0  0  0
   -9.7943    5.9428    3.7514 C   0  0  0  0  0  0  0  0  0  0  0  0
   -8.6953    6.9061    4.1947 C   0  0  0  0  0  0  0  0  0  0  0  0
  1  3  4  0
  1 14  4  0
  1  2  1  0
  3  4  4  0
  4  5  4  0
  5  6  4  0
  5 22  1  0
  6  7  1  0
  6 14  4  0
  7  8  1  0
  8  9  4  0
  8 12  4  0
  9 10  4  0
 10 11  4  0
 11 12  4  0
 12 13  1  0
 13 14  1  0
 13 15  1  6
 15 16  4  0
 15 20  4  0
 16 17  4  0
 17 18  4  0
 17 21  1  0
 18 19  4  0
 19 20  4  0
 23 24  4  0
 24 25  4  0
 25 26  1  0
 26 27  1  0
 27 28  1  0
 28 29  2  0
 28 30  1  0
 30 31  1  0
 31 32  4  0
 32 33  4  0
 33 34  1  0
 34 35  1  0
 34 36  1  0
 34 37  1  0
 33 38  4  0
 38 39  4  0
 39 40  4  0
 40 41  1  0
 25 42  4  0
 42 43  1  0
 43 44  1  0
 44 45  1  0
 40 31  4  0
  2 23  4  0
  2 42  4  0
M  END
$$$$

     RDKit          3D

 32 37  0  0  0  0  0  0  0  0999 V2000
   -7.6410    4.9930    6.8080 C   0  0  0  0  0  0  0  0  0  1  0  0
   -7.7310    4.0530    5.7140 C   0  0  0  0  0  0  0  0  0  2  0  0
   -6.4520    5.6300    6.8680 N   0  0  0  0  0  0  0  0  0  0  0  0
   -6.2260    6.5240    7.8670 N   0  0  0  0  0  0  0  0  0  0  0  0
   -7.1930    6.7500    8.7820 C   0  0  0  0  0  0  0  0  0  0  0  0
   -8.4240    6.1170    8.7580 C   0  0  0  0  0  0  0  0  0  0  0  0
   -9.3950    6.3570    9.7450 N   0  0  0  0  0  0  0  0  0  0  0  0
  -10.5620    5.6840    9.7600 C   0  0  0  0  0  0  0  0  0  0  0  0
  -11.5770    5.6820   10.5960 N   0  0  0  0  0  0  0  0  0  0  0  0
  -12.4690    4.7490   10.1080 N   0  0  0  0  0  0  0  0  0  0  0  0
  -12.0160    4.1880    8.9920 N   0  0  0  0  0  0  0  0  0  0  0  0
  -10.8400    4.7900    8.7610 N   0  0  0  0  0  0  0  0  0  0  0  0
   -9.9950    4.4790    7.6090 C   0  0  0  0  0  0  0  0  0  0  0  0
   -8.6630    5.2070    7.7200 C   0  0  0  0  0  0  0  0  0  0  0  0
  -10.7490    4.8610    6.3730 C   0  0  0  0  0  0  0  0  0  0  0  0
  -11.0350    6.2020    6.1170 C   0  0  0  0  0  0  0  0  0  0  0  0
  -11.7370    6.5580    4.9650 C   0  0  0  0  0  0  0  0  0  0  0  0
  -12.1550    5.5730    4.0710 C   0  0  0  0  0  0  0  0  0  0  0  0
  -11.8700    4.2310    4.3270 C   0  0  0  0  0  0  0  0  0  0  0  0
  -11.1660    3.8760    5.4790 C   0  0  0  0  0  0  0  0  0  0  0  0
  -12.0160    7.8660    4.7150 O   0  0  0  0  0  0  0  0  0  0  0  0
   -6.8990    7.6510    9.7710 O   0  0  0  0  0  0  0  0  0  0  0  0
   -6.5948    2.9083    5.2176 S   0  0  0  0  0  0  0  0  0  0  0  0
   -7.4885    2.1752    3.9992 C   0  0  0  0  0  0  0  0  0  0  0  0
   -7.0398    0.9937    3.1889 C   0  0  0  0  0  0  0  0  0  0  0  0
   -7.1590   -0.2595    3.9486 N   0  0  0  0  0  0  0  0  0  0  0  0
   -8.5728   -0.6180    4.1557 C   0  0  0  0  0  0  0  0  0  0  0  0
   -8.7795   -1.7033    5.2023 C   0  0  0  0  0  0  0  0  0  0  0  0
   -9.1456   -0.2615    5.5216 C   0  0  0  0  0  0  0  0  0  0  0  0
   -8.7417    2.7705    3.9423 C   0  0  0  0  0  0  0  0  0  0  0  0
   -8.9083    3.8101    4.8708 C   0  0  0  0  0  0  0  0  0  0  0  0
  -10.1778    4.6038    4.9526 C   0  0  0  0  0  0  0  0  0  0  0  0
  1  3  4  0
  1 14  4  0
  1  2  1  0
  3  4  4  0
  4  5  4  0
  5  6  4  0
  5 22  1  0
  6  7  1  0
  6 14  4  0
  7  8  1  0
  8  9  4  0
  8 12  4  0
  9 10  4  0
 10 11  4  0
 11 12  4  0
 12 13  1  0
 13 14  1  0
 13 15  1  6
 15 16  4  0
 15 20  4  0
 16 17  4  0
 17 18  4  0
 17 21  1  0
 18 19  4  0
 19 20  4  0
 23 24  4  0
 24 25  1  0
 25 26  1  0
 26 27  1  0
 27 28  1  0
 28 29  1  0
 24 30  4  0
 30 31  4  0
 31 32  1  0
 29 27  1  0
  2 23  4  0
  2 31  4  0
M  CHG  1  26   1
M  END
$$$$

     RDKit          3D

 32 37  0  0  0  0  0  0  0  0999 V2000
   -7.6410    4.9930    6.8080 C   0  0  0  0  0  0  0  0  0  1  0  0
   -7.7310    4.0530    5.7140 C   0  0  0  0  0  0  0  0  0  2  0  0
   -6.4520    5.6300    6.8680 N   0  0  0  0  0  0  0  0  0  0  0  0
   -6.2260    6.5240    7.8670 N   0  0  0  0  0  0  0  0  0  0  0  0
   -7.1930    6.7500    8.7820 C   0  0  0  0  0  0  0  0  0  0  0  0
   -8.4240    6.1170    8.7580 C   0  0  0  0  0  0  0  0  0  0  0  0
   -9.3950    6.3570    9.7450 N   0  0  0  0  0  0  0  0  0  0  0  0
  -10.5620    5.6840    9.7600 C   0  0  0  0  0  0  0  0  0  0  0  0
  -11.5770    5.6820   10.5960 N   0  0  0  0  0  0  0  0  0  0  0  0
  -12.4690    4.7490   10.1080 N   0  0  0  0  0  0  0  0  0  0  0  0
  -12.0160    4.1880    8.9920 N   0  0  0  0  0  0  0  0  0  0  0  0
  -10.8400    4.7900    8.7610 N   0  0  0  0  0  0  0  0  0  0  0  0
   -9.9950    4.4790    7.6090 C   0  0  0  0  0  0  0  0  0  0  0  0
   -8.6630    5.2070    7.7200 C   0  0  0  0  0  0  0  0  0  0  0  0
  -10.7490    4.8610    6.3730 C   0  0  0  0  0  0  0  0  0  0  0  0
  -11.0350    6.2020    6.1170 C   0  0  0  0  0  0  0  0  0  0  0  0
  -11.7370    6.5580    4.9650 C   0  0  0  0  0  0  0  0  0  0  0  0
  -12.1550    5.5730    4.0710 C   0  0  0  0  0  0  0  0  0  0  0  0
  -11.8700    4.2310    4.3270 C   0  0  0  0  0  0  0  0  0  0  0  0
  -11.1660    3.8760    5.4790 C   0  0  0  0  0  0  0  0  0  0  0  0
  -12.0160    7.8660    4.7150 O   0  0  0  0  0  0  0  0  0  0  0  0
   -6.8990    7.6510    9.7710 O   0  0  0  0  0  0  0  0  0  0  0  0
   -6.5910    2.9162    5.2088 S   0  0  0  0  0  0  0  0  0  0  0  0
   -7.4862    2.1819    3.9916 C   0  0  0  0  0  0  0  0  0  0  0  0
   -7.0184    1.0354    3.1412 C   0  0  0  0  0  0  0  0  0  0  0  0
   -7.6553   -0.2322    3.5304 N   0  0  0  0  0  0  0  0  0  0  0  0
   -7.1871   -0.6725    4.8565 C   0  0  0  0  0  0  0  0  0  0  0  0
   -7.2916   -2.1738    5.0849 C   0  0  0  0  0  0  0  0  0  0  0  0
   -5.9312   -1.5324    4.8479 C   0  0  0  0  0  0  0  0  0  0  0  0
   -8.7395    2.7765    3.9358 C   0  0  0  0  0  0  0  0  0  0  0  0
   -8.9085    3.8108    4.8702 C   0  0  0  0  0  0  0  0  0  0  0  0
  -10.1764    4.6074    4.9508 C   0  0  0  0  0  0  0  0  0  0  0  0
  1  3  4  0
  1 14  4  0
  1  2  1  0
  3  4  4  0
  4  5  4  0
  5  6  4  0
  5 22  1  0
  6  7  1  0
  6 14  4  0
  7  8  1  0
  8  9  4  0
  8 12  4  0
  9 10  4  0
 10 11  4  0
 11 12  4  0
 12 13  1  0
 13 14  1  0
 13 15  1  6
 15 16  4  0
 15 20  4  0
 16 17  4  0
 17 18  4  0
 17 21  1  0
 18 19  4  0
 19 20  4  0
 23 24  4  0
 24 25  1  0
 25 26  1  0
 26 27  1  0
 27 28  1  0
 28 29  1  0
 24 30  4  0
 30 31  4  0
 31 32  1  0
 29 27  1  0
  2 23  4  0
  2 31  4  0
M  CHG  1  26   1
M  END
$$$$

     RDKit          3D

 32 37  0  0  0  0  0  0  0  0999 V2000
   -7.6410    4.9930    6.8080 C   0  0  0  0  0  0  0  0  0  1  0  0
   -7.7310    4.0530    5.7140 C   0  0  0  0  0  0  0  0  0  2  0  0
   -6.4520    5.6300    6.8680 N   0  0  0  0  0  0  0  0  0  0  0  0
   -6.2260    6.5240    7.8670 N   0  0  0  0  0  0  0  0  0  0  0  0
   -7.1930    6.7500    8.7820 C   0  0  0  0  0  0  0  0  0  0  0  0
   -8.4240    6.1170    8.7580 C   0  0  0  0  0  0  0  0  0  0  0  0
   -9.3950    6.3570    9.7450 N   0  0  0  0  0  0  0  0  0  0  0  0
  -10.5620    5.6840    9.7600 C   0  0  0  0  0  0  0  0  0  0  0  0
  -11.5770    5.6820   10.5960 N   0  0  0  0  0  0  0  0  0  0  0  0
  -12.4690    4.7490   10.1080 N   0  0  0  0  0  0  0  0  0  0  0  0
  -12.0160    4.1880    8.9920 N   0  0  0  0  0  0  0  0  0  0  0  0
  -10.8400    4.7900    8.7610 N   0  0  0  0  0  0  0  0  0  0  0  0
   -9.9950    4.4790    7.6090 C   0  0  0  0  0  0  0  0  0  0  0  0
   -8.6630    5.2070    7.7200 C   0  0  0  0  0  0  0  0  0  0  0  0
  -10.7490    4.8610    6.3730 C   0  0  0  0  0  0  0  0  0  0  0  0
  -11.0350    6.2020    6.1170 C   0  0  0  0  0  0  0  0  0  0  0  0
  -11.7370    6.5580    4.9650 C   0  0  0  0  0  0  0  0  0  0  0  0
  -12.1550    5.5730    4.0710 C   0  0  0  0  0  0  0  0  0  0  0  0
  -11.8700    4.2310    4.3270 C   0  0  0  0  0  0  0  0  0  0  0  0
  -11.1660    3.8760    5.4790 C   0  0  0  0  0  0  0  0  0  0  0  0
  -12.0160    7.8660    4.7150 O   0  0  0  0  0  0  0  0  0  0  0  0
   -6.8990    7.6510    9.7710 O   0  0  0  0  0  0  0  0  0  0  0  0
   -6.5935    2.9102    5.2158 S   0  0  0  0  0  0  0  0  0  0  0  0
   -7.4835    2.1834    3.9909 C   0  0  0  0  0  0  0  0  0  0  0  0
   -7.0310    1.0131    3.1721 C   0  0  0  0  0  0  0  0  0  0  0  0
   -7.4295   -0.2467    3.8117 N   0  0  0  0  0  0  0  0  0  0  0  0
   -6.9544   -1.3823    3.0062 C   0  0  0  0  0  0  0  0  0  0  0  0
   -7.9441   -1.9001    1.9714 C   0  0  0  0  0  0  0  0  0  0  0  0
   -7.7089   -2.6799    3.2582 C   0  0  0  0  0  0  0  0  0  0  0  0
   -8.7387    2.7743    3.9372 C   0  0  0  0  0  0  0  0  0  0  0  0
   -8.9072    3.8118    4.8684 C   0  0  0  0  0  0  0  0  0  0  0  0
  -10.1761    4.6067    4.9494 C   0  0  0  0  0  0  0  0  0  0  0  0
  1  3  4  0
  1 14  4  0
  1  2  1  0
  3  4  4  0
  4  5  4  0
  5  6  4  0
  5 22  1  0
  6  7  1  0
  6 14  4  0
  7  8  1  0
  8  9  4  0
  8 12  4  0
  9 10  4  0
 10 11  4  0
 11 12  4  0
 12 13  1  0
 13 14  1  0
 13 15  1  6
 15 16  4  0
 15 20  4  0
 16 17  4  0
 17 18  4  0
 17 21  1  0
 18 19  4  0
 19 20  4  0
 23 24  4  0
 24 25  1  0
 25 26  1  0
 26 27  1  0
 27 28  1  0
 28 29  1  0
 24 30  4  0
 30 31  4  0
 31 32  1  0
 29 27  1  0
  2 23  4  0
  2 31  4  0
M  CHG  1  26   1
M  END
$$$$

     RDKit          3D

 38 44  0  0  0  0  0  0  0  0999 V2000
   -7.6410    4.9930    6.8080 C   0  0  0  0  0  0  0  0  0  1  0  0
   -7.7310    4.0530    5.7140 C   0  0  0  0  0  0  0  0  0  2  0  0
   -6.4520    5.6300    6.8680 N   0  0  0  0  0  0  0  0  0  0  0  0
   -6.2260    6.5240    7.8670 N   0  0  0  0  0  0  0  0  0  0  0  0
   -7.1930    6.7500    8.7820 C   0  0  0  0  0  0  0  0  0  0  0  0
   -8.4240    6.1170    8.7580 C   0  0  0  0  0  0  0  0  0  0  0  0
   -9.3950    6.3570    9.7450 N   0  0  0  0  0  0  0  0  0  0  0  0
  -10.5620    5.6840    9.7600 C   0  0  0  0  0  0  0  0  0  0  0  0
  -11.5770    5.6820   10.5960 N   0  0  0  0  0  0  0  0  0  0  0  0
  -12.4690    4.7490   10.1080 N   0  0  0  0  0  0  0  0  0  0  0  0
  -12.0160    4.1880    8.9920 N   0  0  0  0  0  0  0  0  0  0  0  0
  -10.8400    4.7900    8.7610 N   0  0  0  0  0  0  0  0  0  0  0  0
   -9.9950    4.4790    7.6090 C   0  0  0  0  0  0  0  0  0  0  0  0
   -8.6630    5.2070    7.7200 C   0  0  0  0  0  0  0  0  0  0  0  0
  -10.7490    4.8610    6.3730 C   0  0  0  0  0  0  0  0  0  0  0  0
  -11.0350    6.2020    6.1170 C   0  0  0  0  0  0  0  0  0  0  0  0
  -11.7370    6.5580    4.9650 C   0  0  0  0  0  0  0  0  0  0  0  0
  -12.1550    5.5730    4.0710 C   0  0  0  0  0  0  0  0  0  0  0  0
  -11.8700    4.2310    4.3270 C   0  0  0  0  0  0  0  0  0  0  0  0
  -11.1660    3.8760    5.4790 C   0  0  0  0  0  0  0  0  0  0  0  0
  -12.0160    7.8660    4.7150 O   0  0  0  0  0  0  0  0  0  0  0  0
   -6.8990    7.6510    9.7710 O   0  0  0  0  0  0  0  0  0  0  0  0
   -6.9829    2.8615    5.5619 C   0  0  0  0  0  0  0  0  0  0  0  0
   -7.5073    1.9551    4.2094 S   0  0  0  0  0  0  0  0  0  0  0  0
   -8.7140    3.0684    3.8775 C   0  0  0  0  0  0  0  0  0  0  0  0
   -9.5787    3.1620    2.8536 N   0  0  0  0  0  0  0  0  0  0  0  0
  -10.1940    4.3493    3.1097 C   0  0  0  0  0  0  0  0  0  1  0  0
  -11.2446    4.8997    2.2313 C   0  0  0  0  0  0  0  0  0  2  0  0
  -12.4171    5.4526    2.7682 C   0  0  0  0  0  0  0  0  0  0  0  0
  -13.4063    5.9362    1.9088 C   0  0  0  0  0  0  0  0  0  0  0  0
  -13.2388    5.8564    0.5621 N   0  0  0  0  0  0  0  0  0  0  0  0
  -12.1219    5.3083    0.0146 C   0  0  0  0  0  0  0  0  0  0  0  0
  -11.1088    4.8116    0.8384 C   0  0  0  0  0  0  0  0  0  0  0  0
   -9.6595    4.9428    4.2661 C   0  0  0  0  0  0  0  0  0  0  0  0
   -9.8372    6.3643    4.7294 C   0  0  0  0  0  0  0  0  0  0  0  0
   -8.6153    7.1343    4.4785 C   0  0  0  0  0  0  0  0  0  0  0  0
   -7.6502    7.7418    4.2812 N   0  0  0  0  0  0  0  0  0  0  0  0
   -8.7328    4.0811    4.7235 N   0  0  0  0  0  0  0  0  0  0  0  0
  1  3  4  0
  1 14  4  0
  1  2  1  0
  3  4  4  0
  4  5  4  0
  5  6  4  0
  5 22  1  0
  6  7  1  0
  6 14  4  0
  7  8  1  0
  8  9  4  0
  8 12  4  0
  9 10  4  0
 10 11  4  0
 11 12  4  0
 12 13  1  0
 13 14  1  0
 13 15  1  6
 15 16  4  0
 15 20  4  0
 16 17  4  0
 17 18  4  0
 17 21  1  0
 18 19  4  0
 19 20  4  0
 23 24  4  0
 24 25  4  0
 25 26  4  0
 26 27  4  0
 27 28  1  0
 28 29  4  0
 29 30  4  0
 30 31  4  0
 31 32  4  0
 32 33  4  0
 27 34  4  0
 34 35  1  0
 35 36  1  0
 36 37  3  0
 34 38  4  0
 38 25  4  0
 33 28  4  0
  2 23  4  0
  2 38  4  0
M  END
$$$$

     RDKit          3D

 29 33  0  0  0  0  0  0  0  0999 V2000
   -7.6410    4.9930    6.8080 C   0  0  0  0  0  0  0  0  0  1  0  0
   -7.7310    4.0530    5.7140 C   0  0  0  0  0  0  0  0  0  2  0  0
   -6.4520    5.6300    6.8680 N   0  0  0  0  0  0  0  0  0  0  0  0
   -6.2260    6.5240    7.8670 N   0  0  0  0  0  0  0  0  0  0  0  0
   -7.1930    6.7500    8.7820 C   0  0  0  0  0  0  0  0  0  0  0  0
   -8.4240    6.1170    8.7580 C   0  0  0  0  0  0  0  0  0  0  0  0
   -9.3950    6.3570    9.7450 N   0  0  0  0  0  0  0  0  0  0  0  0
  -10.5620    5.6840    9.7600 C   0  0  0  0  0  0  0  0  0  0  0  0
  -11.5770    5.6820   10.5960 N   0  0  0  0  0  0  0  0  0  0  0  0
  -12.4690    4.7490   10.1080 N   0  0  0  0  0  0  0  0  0  0  0  0
  -12.0160    4.1880    8.9920 N   0  0  0  0  0  0  0  0  0  0  0  0
  -10.8400    4.7900    8.7610 N   0  0  0  0  0  0  0  0  0  0  0  0
   -9.9950    4.4790    7.6090 C   0  0  0  0  0  0  0  0  0  0  0  0
   -8.6630    5.2070    7.7200 C   0  0  0  0  0  0  0  0  0  0  0  0
  -10.7490    4.8610    6.3730 C   0  0  0  0  0  0  0  0  0  0  0  0
  -11.0350    6.2020    6.1170 C   0  0  0  0  0  0  0  0  0  0  0  0
  -11.7370    6.5580    4.9650 C   0  0  0  0  0  0  0  0  0  0  0  0
  -12.1550    5.5730    4.0710 C   0  0  0  0  0  0  0  0  0  0  0  0
  -11.8700    4.2310    4.3270 C   0  0  0  0  0  0  0  0  0  0  0  0
  -11.1660    3.8760    5.4790 C   0  0  0  0  0  0  0  0  0  0  0  0
  -12.0160    7.8660    4.7150 O   0  0  0  0  0  0  0  0  0  0  0  0
   -6.8990    7.6510    9.7710 O   0  0  0  0  0  0  0  0  0  0  0  0
   -6.7462    3.1753    5.2713 C   0  0  0  0  0  0  0  0  0  0  0  0
   -6.9519    2.2114    4.2787 C   0  0  0  0  0  0  0  0  0  0  0  0
   -5.6290    1.1767    3.7732 Cl  0  0  0  0  0  0  0  0  0  0  0  0
   -8.2134    2.0681    3.6944 C   0  0  0  0  0  0  0  0  0  0  0  0
   -9.2673    2.8927    4.0954 C   0  0  0  0  0  0  0  0  0  0  0  0
   -9.0670    3.8622    5.0836 C   0  0  0  0  0  0  0  0  0  0  0  0
  -10.1188    4.7023    5.4325 O   0  0  0  0  0  0  0  0  0  0  0  0
  1  3  4  0
  1 14  4  0
  1  2  1  0
  3  4  4  0
  4  5  4  0
  5  6  4  0
  5 22  1  0
  6  7  1  0
  6 14  4  0
  7  8  1  0
  8  9  4  0
  8 12  4  0
  9 10  4  0
 10 11  4  0
 11 12  4  0
 12 13  1  0
 13 14  1  0
 13 15  1  6
 15 16  4  0
 15 20  4  0
 16 17  4  0
 17 18  4  0
 17 21  1  0
 18 19  4  0
 19 20  4  0
 23 24  4  0
 24 25  1  0
 24 26  4  0
 26 27  4  0
 27 28  4  0
 28 29  1  0
  2 23  4  0
  2 28  4  0
M  CHG  1  29  -1
M  END
$$$$

     RDKit          3D

 44 51  0  0  0  0  0  0  0  0999 V2000
   -7.6410    4.9930    6.8080 C   0  0  0  0  0  0  0  0  0  1  0  0
   -7.7310    4.0530    5.7140 C   0  0  0  0  0  0  0  0  0  2  0  0
   -6.4520    5.6300    6.8680 N   0  0  0  0  0  0  0  0  0  0  0  0
   -6.2260    6.5240    7.8670 N   0  0  0  0  0  0  0  0  0  0  0  0
   -7.1930    6.7500    8.7820 C   0  0  0  0  0  0  0  0  0  0  0  0
   -8.4240    6.1170    8.7580 C   0  0  0  0  0  0  0  0  0  0  0  0
   -9.3950    6.3570    9.7450 N   0  0  0  0  0  0  0  0  0  0  0  0
  -10.5620    5.6840    9.7600 C   0  0  0  0  0  0  0  0  0  0  0  0
  -11.5770    5.6820   10.5960 N   0  0  0  0  0  0  0  0  0  0  0  0
  -12.4690    4.7490   10.1080 N   0  0  0  0  0  0  0  0  0  0  0  0
  -12.0160    4.1880    8.9920 N   0  0  0  0  0  0  0  0  0  0  0  0
  -10.8400    4.7900    8.7610 N   0  0  0  0  0  0  0  0  0  0  0  0
   -9.9950    4.4790    7.6090 C   0  0  0  0  0  0  0  0  0  0  0  0
   -8.6630    5.2070    7.7200 C   0  0  0  0  0  0  0  0  0  0  0  0
  -10.7490    4.8610    6.3730 C   0  0  0  0  0  0  0  0  0  0  0  0
  -11.0350    6.2020    6.1170 C   0  0  0  0  0  0  0  0  0  0  0  0
  -11.7370    6.5580    4.9650 C   0  0  0  0  0  0  0  0  0  0  0  0
  -12.1550    5.5730    4.0710 C   0  0  0  0  0  0  0  0  0  0  0  0
  -11.8700    4.2310    4.3270 C   0  0  0  0  0  0  0  0  0  0  0  0
  -11.1660    3.8760    5.4790 C   0  0  0  0  0  0  0  0  0  0  0  0
  -12.0160    7.8660    4.7150 O   0  0  0  0  0  0  0  0  0  0  0  0
   -6.8990    7.6510    9.7710 O   0  0  0  0  0  0  0  0  0  0  0  0
   -7.0572    2.8606    5.6256 N   0  0  0  0  0  0  0  0  0  0  0  0
   -7.6118    2.0710    4.7045 N   0  0  0  0  0  0  0  0  0  0  0  0
   -8.6553    2.7780    4.2455 C   0  0  0  0  0  0  0  0  0  0  0  0
   -9.6296    2.4336    3.3748 N   0  0  0  0  0  0  0  0  0  0  0  0
   -9.8180    1.1481    2.7002 C   0  0  0  0  0  0  0  0  0  0  0  0
  -10.8729    0.3281    3.4025 C   0  0  0  0  0  0  0  0  0  0  0  0
  -10.7207    0.0137    4.7649 C   0  0  0  0  0  0  0  0  0  0  0  0
  -11.6891   -0.7439    5.4293 C   0  0  0  0  0  0  0  0  0  0  0  0
  -12.8126   -1.2040    4.7397 C   0  0  0  0  0  0  0  0  0  0  0  0
  -12.9668   -0.9124    3.3825 C   0  0  0  0  0  0  0  0  0  0  0  0
  -12.0019   -0.1541    2.7106 C   0  0  0  0  0  0  0  0  0  0  0  0
  -12.1692    0.0977    1.3876 F   0  0  0  0  0  0  0  0  0  0  0  0
  -10.4265    3.5390    3.3979 C   0  0  0  0  0  0  0  0  0  0  0  0
  -11.6083    3.8063    2.7202 C   0  0  0  0  0  0  0  0  0  0  0  0
  -12.1228    2.9667    1.9358 O   0  0  0  0  0  0  0  0  0  0  0  0
  -12.2059    5.0154    2.9277 N   0  0  0  0  0  0  0  0  0  0  0  0
  -11.6477    5.9688    3.7442 C   0  0  0  0  0  0  0  0  0  0  0  0
  -12.2404    7.0741    3.8854 O   0  0  0  0  0  0  0  0  0  0  0  0
  -10.4539    5.7309    4.3937 N   0  0  0  0  0  0  0  0  0  0  0  0
   -9.7958    6.7970    5.1565 C   0  0  0  0  0  0  0  0  0  0  0  0
   -9.9059    4.4867    4.2543 C   0  0  0  0  0  0  0  0  0  0  0  0
   -8.7921    3.9637    4.8058 N   0  0  0  0  0  0  0  0  0  0  0  0
  1  3  4  0
  1 14  4  0
  1  2  1  0
  3  4  4  0
  4  5  4  0
  5  6  4  0
  5 22  1  0
  6  7  1  0
  6 14  4  0
  7  8  1  0
  8  9  4  0
  8 12  4  0
  9 10  4  0
 10 11  4  0
 11 12  4  0
 12 13  1  0
 13 14  1  0
 13 15  1  6
 15 16  4  0
 15 20  4  0
 16 17  4  0
 17 18  4  0
 17 21  1  0
 18 19  4  0
 19 20  4  0
 23 24  4  0
 24 25  4  0
 25 26  4  0
 26 27  1  0
 27 28  1  0
 28 29  4  0
 29 30  4  0
 30 31  4  0
 31 32  4  0
 32 33  4  0
 33 34  1  0
 26 35  4  0
 35 36  4  0
 36 37  2  0
 36 38  4  0
 38 39  4  0
 39 40  2  0
 39 41  4  0
 41 42  1  0
 41 43  4  0
 43 44  4  0
 44 25  4  0
 33 28  4  0
 43 35  4  0
  2 23  4  0
  2 44  4  0
M  END
$$$$

     RDKit          3D

 44 51  0  0  0  0  0  0  0  0999 V2000
   -7.6410    4.9930    6.8080 C   0  0  0  0  0  0  0  0  0  1  0  0
   -7.7310    4.0530    5.7140 C   0  0  0  0  0  0  0  0  0  2  0  0
   -6.4520    5.6300    6.8680 N   0  0  0  0  0  0  0  0  0  0  0  0
   -6.2260    6.5240    7.8670 N   0  0  0  0  0  0  0  0  0  0  0  0
   -7.1930    6.7500    8.7820 C   0  0  0  0  0  0  0  0  0  0  0  0
   -8.4240    6.1170    8.7580 C   0  0  0  0  0  0  0  0  0  0  0  0
   -9.3950    6.3570    9.7450 N   0  0  0  0  0  0  0  0  0  0  0  0
  -10.5620    5.6840    9.7600 C   0  0  0  0  0  0  0  0  0  0  0  0
  -11.5770    5.6820   10.5960 N   0  0  0  0  0  0  0  0  0  0  0  0
  -12.4690    4.7490   10.1080 N   0  0  0  0  0  0  0  0  0  0  0  0
  -12.0160    4.1880    8.9920 N   0  0  0  0  0  0  0  0  0  0  0  0
  -10.8400    4.7900    8.7610 N   0  0  0  0  0  0  0  0  0  0  0  0
   -9.9950    4.4790    7.6090 C   0  0  0  0  0  0  0  0  0  0  0  0
   -8.6630    5.2070    7.7200 C   0  0  0  0  0  0  0  0  0  0  0  0
  -10.7490    4.8610    6.3730 C   0  0  0  0  0  0  0  0  0  0  0  0
  -11.0350    6.2020    6.1170 C   0  0  0  0  0  0  0  0  0  0  0  0
  -11.7370    6.5580    4.9650 C   0  0  0  0  0  0  0  0  0  0  0  0
  -12.1550    5.5730    4.0710 C   0  0  0  0  0  0  0  0  0  0  0  0
  -11.8700    4.2310    4.3270 C   0  0  0  0  0  0  0  0  0  0  0  0
  -11.1660    3.8760    5.4790 C   0  0  0  0  0  0  0  0  0  0  0  0
  -12.0160    7.8660    4.7150 O   0  0  0  0  0  0  0  0  0  0  0  0
   -6.8990    7.6510    9.7710 O   0  0  0  0  0  0  0  0  0  0  0  0
   -6.7865    3.1839    5.2947 N   0  0  0  0  0  0  0  0  0  0  0  0
   -7.2771    2.4512    4.3079 N   0  0  0  0  0  0  0  0  0  0  0  0
   -6.5062    1.4475    3.5764 C   0  0  0  0  0  0  0  0  0  0  0  0
   -6.2691    1.9004    2.1906 N   0  0  0  0  0  0  0  0  0  0  0  0
   -5.2881    3.0035    2.1371 C   0  0  0  0  0  0  0  0  0  0  0  0
   -5.1792    3.5573    0.7168 C   0  0  0  0  0  0  0  0  0  0  0  0
   -4.7711    2.4578   -0.2606 C   0  0  0  0  0  0  0  0  0  0  0  0
   -5.7311    1.2667   -0.1762 C   0  0  0  0  0  0  0  0  0  0  0  0
   -5.9608    0.7745    1.2694 C   0  0  0  0  0  0  0  0  0  0  0  0
   -4.8557   -0.1441    1.7595 C   0  0  0  0  0  0  0  0  0  0  0  0
   -5.1017   -1.4258    2.1339 N   0  0  0  0  0  0  0  0  0  0  0  0
   -3.9672   -2.0546    2.5337 C   0  0  0  0  0  0  0  0  0  0  0  0
   -3.9120   -3.3775    2.9761 C   0  0  0  0  0  0  0  0  0  0  0  0
   -2.6690   -3.9087    3.3629 C   0  0  0  0  0  0  0  0  0  0  0  0
   -1.5043   -3.1171    3.3027 C   0  0  0  0  0  0  0  0  0  0  0  0
   -1.5726   -1.7877    2.8556 C   0  0  0  0  0  0  0  0  0  0  0  0
   -2.8161   -1.2872    2.4794 C   0  0  0  0  0  0  0  0  0  0  0  0
   -3.2077    0.2397    1.9125 S   0  0  0  0  0  0  0  0  0  0  0  0
   -8.5523    2.8317    4.0943 C   0  0  0  0  0  0  0  0  0  0  0  0
   -9.5376    2.1857    2.9482 S   0  0  0  0  0  0  0  0  0  0  0  0
   -8.9019    3.8236    4.9402 N   0  0  0  0  0  0  0  0  0  0  0  0
  -10.1770    4.5393    5.0048 C   0  0  0  0  0  0  0  0  0  0  0  0
  1  3  4  0
  1 14  4  0
  1  2  1  0
  3  4  4  0
  4  5  4  0
  5  6  4  0
  5 22  1  0
  6  7  1  0
  6 14  4  0
  7  8  1  0
  8  9  4  0
  8 12  4  0
  9 10  4  0
 10 11  4  0
 11 12  4  0
 12 13  1  0
 13 14  1  0
 13 15  1  6
 15 16  4  0
 15 20  4  0
 16 17  4  0
 17 18  4  0
 17 21  1  0
 18 19  4  0
 19 20  4  0
 23 24  4  0
 24 25  1  0
 25 26  1  0
 26 27  1  0
 27 28  1  0
 28 29  1  0
 29 30  1  0
 30 31  1  0
 31 32  1  0
 32 33  4  0
 33 34  4  0
 34 35  4  0
 35 36  4  0
 36 37  4  0
 37 38  4  0
 38 39  4  0
 39 40  4  0
 24 41  4  0
 41 42  2  0
 41 43  4  0
 43 44  1  0
 31 26  1  0
 40 32  4  0
 39 34  4  0
  2 23  4  0
  2 43  4  0
M  END
$$$$

     RDKit          3D

 44 51  0  0  0  0  0  0  0  0999 V2000
   -7.6410    4.9930    6.8080 C   0  0  0  0  0  0  0  0  0  1  0  0
   -7.7310    4.0530    5.7140 C   0  0  0  0  0  0  0  0  0  2  0  0
   -6.4520    5.6300    6.8680 N   0  0  0  0  0  0  0  0  0  0  0  0
   -6.2260    6.5240    7.8670 N   0  0  0  0  0  0  0  0  0  0  0  0
   -7.1930    6.7500    8.7820 C   0  0  0  0  0  0  0  0  0  0  0  0
   -8.4240    6.1170    8.7580 C   0  0  0  0  0  0  0  0  0  0  0  0
   -9.3950    6.3570    9.7450 N   0  0  0  0  0  0  0  0  0  0  0  0
  -10.5620    5.6840    9.7600 C   0  0  0  0  0  0  0  0  0  0  0  0
  -11.5770    5.6820   10.5960 N   0  0  0  0  0  0  0  0  0  0  0  0
  -12.4690    4.7490   10.1080 N   0  0  0  0  0  0  0  0  0  0  0  0
  -12.0160    4.1880    8.9920 N   0  0  0  0  0  0  0  0  0  0  0  0
  -10.8400    4.7900    8.7610 N   0  0  0  0  0  0  0  0  0  0  0  0
   -9.9950    4.4790    7.6090 C   0  0  0  0  0  0  0  0  0  0  0  0
   -8.6630    5.2070    7.7200 C   0  0  0  0  0  0  0  0  0  0  0  0
  -10.7490    4.8610    6.3730 C   0  0  0  0  0  0  0  0  0  0  0  0
  -11.0350    6.2020    6.1170 C   0  0  0  0  0  0  0  0  0  0  0  0
  -11.7370    6.5580    4.9650 C   0  0  0  0  0  0  0  0  0  0  0  0
  -12.1550    5.5730    4.0710 C   0  0  0  0  0  0  0  0  0  0  0  0
  -11.8700    4.2310    4.3270 C   0  0  0  0  0  0  0  0  0  0  0  0
  -11.1660    3.8760    5.4790 C   0  0  0  0  0  0  0  0  0  0  0  0
  -12.0160    7.8660    4.7150 O   0  0  0  0  0  0  0  0  0  0  0  0
   -6.8990    7.6510    9.7710 O   0  0  0  0  0  0  0  0  0  0  0  0
   -6.7920    3.1728    5.3052 N   0  0  0  0  0  0  0  0  0  0  0  0
   -7.2848    2.4344    4.3235 N   0  0  0  0  0  0  0  0  0  0  0  0
   -6.5375    1.3761    3.6448 C   0  0  0  0  0  0  0  0  0  0  0  0
   -7.0729    0.0500    4.0228 N   0  0  0  0  0  0  0  0  0  0  0  0
   -6.6974   -0.3160    5.4143 C   0  0  0  0  0  0  0  0  0  0  0  0
   -5.4314   -1.1812    5.4706 C   0  0  0  0  0  0  0  0  0  0  0  0
   -5.6224   -2.5022    4.7067 C   0  0  0  0  0  0  0  0  0  0  0  0
   -6.6848   -2.3981    3.6009 C   0  0  0  0  0  0  0  0  0  0  0  0
   -6.7233   -0.9784    3.0041 C   0  0  0  0  0  0  0  0  0  0  0  0
   -7.7299   -0.9330    1.8918 C   0  0  0  0  0  0  0  0  0  0  0  0
   -9.0572   -1.1419    2.0793 N   0  0  0  0  0  0  0  0  0  0  0  0
   -9.7388   -1.0133    0.9130 C   0  0  0  0  0  0  0  0  0  0  0  0
  -11.1206   -1.1636    0.7866 C   0  0  0  0  0  0  0  0  0  0  0  0
  -11.7046   -0.9958   -0.4811 C   0  0  0  0  0  0  0  0  0  0  0  0
  -10.9061   -0.6808   -1.5990 C   0  0  0  0  0  0  0  0  0  0  0  0
   -9.5170   -0.5308   -1.4593 C   0  0  0  0  0  0  0  0  0  0  0  0
   -8.9638   -0.7028   -0.1932 C   0  0  0  0  0  0  0  0  0  0  0  0
   -7.3580   -0.5788    0.2764 S   0  0  0  0  0  0  0  0  0  0  0  0
   -8.5593    2.8182    4.1080 C   0  0  0  0  0  0  0  0  0  0  0  0
   -9.5527    2.1618    2.9752 S   0  0  0  0  0  0  0  0  0  0  0  0
   -8.9026    3.8219    4.9421 N   0  0  0  0  0  0  0  0  0  0  0  0
  -10.1770    4.5391    5.0052 C   0  0  0  0  0  0  0  0  0  0  0  0
  1  3  4  0
  1 14  4  0
  1  2  1  0
  3  4  4  0
  4  5  4  0
  5  6  4  0
  5 22  1  0
  6  7  1  0
  6 14  4  0
  7  8  1  0
  8  9  4  0
  8 12  4  0
  9 10  4  0
 10 11  4  0
 11 12  4  0
 12 13  1  0
 13 14  1  0
 13 15  1  6
 15 16  4  0
 15 20  4  0
 16 17  4  0
 17 18  4  0
 17 21  1  0
 18 19  4  0
 19 20  4  0
 23 24  4  0
 24 25  1  0
 25 26  1  0
 26 27  1  0
 27 28  1  0
 28 29  1  0
 29 30  1  0
 30 31  1  0
 31 32  1  0
 32 33  4  0
 33 34  4  0
 34 35  4  0
 35 36  4  0
 36 37  4  0
 37 38  4  0
 38 39  4  0
 39 40  4  0
 24 41  4  0
 41 42  2  0
 41 43  4  0
 43 44  1  0
 31 26  1  0
 40 32  4  0
 39 34  4  0
  2 23  4  0
  2 43  4  0
M  END
$$$$

     RDKit          3D

 39 44  0  0  0  0  0  0  0  0999 V2000
   -7.6410    4.9930    6.8080 C   0  0  0  0  0  0  0  0  0  1  0  0
   -7.7310    4.0530    5.7140 C   0  0  0  0  0  0  0  0  0  2  0  0
   -6.4520    5.6300    6.8680 N   0  0  0  0  0  0  0  0  0  0  0  0
   -6.2260    6.5240    7.8670 N   0  0  0  0  0  0  0  0  0  0  0  0
   -7.1930    6.7500    8.7820 C   0  0  0  0  0  0  0  0  0  0  0  0
   -8.4240    6.1170    8.7580 C   0  0  0  0  0  0  0  0  0  0  0  0
   -9.3950    6.3570    9.7450 N   0  0  0  0  0  0  0  0  0  0  0  0
  -10.5620    5.6840    9.7600 C   0  0  0  0  0  0  0  0  0  0  0  0
  -11.5770    5.6820   10.5960 N   0  0  0  0  0  0  0  0  0  0  0  0
  -12.4690    4.7490   10.1080 N   0  0  0  0  0  0  0  0  0  0  0  0
  -12.0160    4.1880    8.9920 N   0  0  0  0  0  0  0  0  0  0  0  0
  -10.8400    4.7900    8.7610 N   0  0  0  0  0  0  0  0  0  0  0  0
   -9.9950    4.4790    7.6090 C   0  0  0  0  0  0  0  0  0  0  0  0
   -8.6630    5.2070    7.7200 C   0  0  0  0  0  0  0  0  0  0  0  0
  -10.7490    4.8610    6.3730 C   0  0  0  0  0  0  0  0  0  0  0  0
  -11.0350    6.2020    6.1170 C   0  0  0  0  0  0  0  0  0  0  0  0
  -11.7370    6.5580    4.9650 C   0  0  0  0  0  0  0  0  0  0  0  0
  -12.1550    5.5730    4.0710 C   0  0  0  0  0  0  0  0  0  0  0  0
  -11.8700    4.2310    4.3270 C   0  0  0  0  0  0  0  0  0  0  0  0
  -11.1660    3.8760    5.4790 C   0  0  0  0  0  0  0  0  0  0  0  0
  -12.0160    7.8660    4.7150 O   0  0  0  0  0  0  0  0  0  0  0  0
   -6.8990    7.6510    9.7710 O   0  0  0  0  0  0  0  0  0  0  0  0
   -6.7696    3.0942    5.3938 C   0  0  0  0  0  0  0  0  0  0  0  0
   -6.9393    2.1349    4.3928 C   0  0  0  0  0  0  0  0  0  0  0  0
   -8.1398    2.0768    3.6627 C   0  0  0  0  0  0  0  0  0  0  0  0
   -8.3621    1.1276    2.6538 O   0  0  0  0  0  0  0  0  0  0  0  0
   -7.4183    0.1361    2.2571 C   0  0  0  0  0  0  0  0  0  0  0  0
   -8.0254   -0.7114    1.1271 C   0  0  0  0  0  0  0  0  0  0  0  0
   -7.1896   -1.8550    0.6984 N   0  0  0  0  0  0  0  0  0  0  0  0
   -7.2373   -3.0013    1.6291 C   0  0  0  0  0  0  0  0  0  0  0  0
   -6.1378   -4.0350    1.2821 C   0  0  0  0  0  0  0  0  0  0  0  0
   -6.6037   -5.4598    1.5776 C   0  0  0  0  0  0  0  0  0  0  0  0
   -5.7937   -3.9326   -0.0867 O   0  0  0  0  0  0  0  0  0  0  0  0
   -5.1206   -2.7066   -0.3448 C   0  0  0  0  0  0  0  0  0  0  0  0
   -5.0604   -2.5060   -1.8592 C   0  0  0  0  0  0  0  0  0  0  0  0
   -5.8074   -1.4950    0.3440 C   0  0  0  0  0  0  0  0  0  0  0  0
   -9.1543    2.9980    3.9429 C   0  0  0  0  0  0  0  0  0  0  0  0
   -8.9874    3.9685    4.9410 C   0  0  0  0  0  0  0  0  0  0  0  0
   -9.9931    4.9077    5.1679 O   0  0  0  0  0  0  0  0  0  0  0  0
  1  3  4  0
  1 14  4  0
  1  2  1  0
  3  4  4  0
  4  5  4  0
  5  6  4  0
  5 22  1  0
  6  7  1  0
  6 14  4  0
  7  8  1  0
  8  9  4  0
  8 12  4  0
  9 10  4  0
 10 11  4  0
 11 12  4  0
 12 13  1  0
 13 14  1  0
 13 15  1  6
 15 16  4  0
 15 20  4  0
 16 17  4  0
 17 18  4  0
 17 21  1  0
 18 19  4  0
 19 20  4  0
 23 24  4  0
 24 25  4  0
 25 26  1  0
 26 27  1  0
 27 28  1  0
 28 29  1  0
 29 30  1  0
 30 31  1  0
 31 32  1  0
 31 33  1  0
 33 34  1  0
 34 35  1  0
 34 36  1  0
 25 37  4  0
 37 38  4  0
 38 39  1  0
 36 29  1  0
  2 23  4  0
  2 38  4  0
M  END
$$$$

     RDKit          3D

 39 44  0  0  0  0  0  0  0  0999 V2000
   -7.6410    4.9930    6.8080 C   0  0  0  0  0  0  0  0  0  1  0  0
   -7.7310    4.0530    5.7140 C   0  0  0  0  0  0  0  0  0  2  0  0
   -6.4520    5.6300    6.8680 N   0  0  0  0  0  0  0  0  0  0  0  0
   -6.2260    6.5240    7.8670 N   0  0  0  0  0  0  0  0  0  0  0  0
   -7.1930    6.7500    8.7820 C   0  0  0  0  0  0  0  0  0  0  0  0
   -8.4240    6.1170    8.7580 C   0  0  0  0  0  0  0  0  0  0  0  0
   -9.3950    6.3570    9.7450 N   0  0  0  0  0  0  0  0  0  0  0  0
  -10.5620    5.6840    9.7600 C   0  0  0  0  0  0  0  0  0  0  0  0
  -11.5770    5.6820   10.5960 N   0  0  0  0  0  0  0  0  0  0  0  0
  -12.4690    4.7490   10.1080 N   0  0  0  0  0  0  0  0  0  0  0  0
  -12.0160    4.1880    8.9920 N   0  0  0  0  0  0  0  0  0  0  0  0
  -10.8400    4.7900    8.7610 N   0  0  0  0  0  0  0  0  0  0  0  0
   -9.9950    4.4790    7.6090 C   0  0  0  0  0  0  0  0  0  0  0  0
   -8.6630    5.2070    7.7200 C   0  0  0  0  0  0  0  0  0  0  0  0
  -10.7490    4.8610    6.3730 C   0  0  0  0  0  0  0  0  0  0  0  0
  -11.0350    6.2020    6.1170 C   0  0  0  0  0  0  0  0  0  0  0  0
  -11.7370    6.5580    4.9650 C   0  0  0  0  0  0  0  0  0  0  0  0
  -12.1550    5.5730    4.0710 C   0  0  0  0  0  0  0  0  0  0  0  0
  -11.8700    4.2310    4.3270 C   0  0  0  0  0  0  0  0  0  0  0  0
  -11.1660    3.8760    5.4790 C   0  0  0  0  0  0  0  0  0  0  0  0
  -12.0160    7.8660    4.7150 O   0  0  0  0  0  0  0  0  0  0  0  0
   -6.8990    7.6510    9.7710 O   0  0  0  0  0  0  0  0  0  0  0  0
   -6.7821    3.0727    5.4175 C   0  0  0  0  0  0  0  0  0  0  0  0
   -6.9531    2.1131    4.4178 C   0  0  0  0  0  0  0  0  0  0  0  0
   -8.1320    2.0710    3.6678 C   0  0  0  0  0  0  0  0  0  0  0  0
   -8.2560    1.0826    2.6811 O   0  0  0  0  0  0  0  0  0  0  0  0
   -9.3909    0.9251    1.8316 C   0  0  0  0  0  0  0  0  0  0  0  0
   -9.1664   -0.2512    0.8644 C   0  0  0  0  0  0  0  0  0  0  0  0
   -8.4024    0.0825   -0.3596 N   0  0  0  0  0  0  0  0  0  0  0  0
   -7.0476    0.6109   -0.1096 C   0  0  0  0  0  0  0  0  0  0  0  0
   -6.3773    1.0278   -1.4443 C   0  0  0  0  0  0  0  0  0  0  0  0
   -4.9056    0.6139   -1.4800 C   0  0  0  0  0  0  0  0  0  0  0  0
   -7.0513    0.4370   -2.5410 O   0  0  0  0  0  0  0  0  0  0  0  0
   -8.3628    0.9717   -2.6625 C   0  0  0  0  0  0  0  0  0  0  0  0
   -9.1009    0.1862   -3.7467 C   0  0  0  0  0  0  0  0  0  0  0  0
   -9.1383    0.9252   -1.3164 C   0  0  0  0  0  0  0  0  0  0  0  0
   -9.1426    3.0173    3.9216 C   0  0  0  0  0  0  0  0  0  0  0  0
   -8.9727    3.9903    4.9176 C   0  0  0  0  0  0  0  0  0  0  0  0
   -9.9607    4.9544    5.1188 O   0  0  0  0  0  0  0  0  0  0  0  0
  1  3  4  0
  1 14  4  0
  1  2  1  0
  3  4  4  0
  4  5  4  0
  5  6  4  0
  5 22  1  0
  6  7  1  0
  6 14  4  0
  7  8  1  0
  8  9  4  0
  8 12  4  0
  9 10  4  0
 10 11  4  0
 11 12  4  0
 12 13  1  0
 13 14  1  0
 13 15  1  6
 15 16  4  0
 15 20  4  0
 16 17  4  0
 17 18  4  0
 17 21  1  0
 18 19  4  0
 19 20  4  0
 23 24  4  0
 24 25  4  0
 25 26  1  0
 26 27  1  0
 27 28  1  0
 28 29  1  0
 29 30  1  0
 30 31  1  0
 31 32  1  0
 31 33  1  0
 33 34  1  0
 34 35  1  0
 34 36  1  0
 25 37  4  0
 37 38  4  0
 38 39  1  0
 36 29  1  0
  2 23  4  0
  2 38  4  0
M  END
$$$$

     RDKit          3D

 39 44  0  0  0  0  0  0  0  0999 V2000
   -7.6410    4.9930    6.8080 C   0  0  0  0  0  0  0  0  0  1  0  0
   -7.7310    4.0530    5.7140 C   0  0  0  0  0  0  0  0  0  2  0  0
   -6.4520    5.6300    6.8680 N   0  0  0  0  0  0  0  0  0  0  0  0
   -6.2260    6.5240    7.8670 N   0  0  0  0  0  0  0  0  0  0  0  0
   -7.1930    6.7500    8.7820 C   0  0  0  0  0  0  0  0  0  0  0  0
   -8.4240    6.1170    8.7580 C   0  0  0  0  0  0  0  0  0  0  0  0
   -9.3950    6.3570    9.7450 N   0  0  0  0  0  0  0  0  0  0  0  0
  -10.5620    5.6840    9.7600 C   0  0  0  0  0  0  0  0  0  0  0  0
  -11.5770    5.6820   10.5960 N   0  0  0  0  0  0  0  0  0  0  0  0
  -12.4690    4.7490   10.1080 N   0  0  0  0  0  0  0  0  0  0  0  0
  -12.0160    4.1880    8.9920 N   0  0  0  0  0  0  0  0  0  0  0  0
  -10.8400    4.7900    8.7610 N   0  0  0  0  0  0  0  0  0  0  0  0
   -9.9950    4.4790    7.6090 C   0  0  0  0  0  0  0  0  0  0  0  0
   -8.6630    5.2070    7.7200 C   0  0  0  0  0  0  0  0  0  0  0  0
  -10.7490    4.8610    6.3730 C   0  0  0  0  0  0  0  0  0  0  0  0
  -11.0350    6.2020    6.1170 C   0  0  0  0  0  0  0  0  0  0  0  0
  -11.7370    6.5580    4.9650 C   0  0  0  0  0  0  0  0  0  0  0  0
  -12.1550    5.5730    4.0710 C   0  0  0  0  0  0  0  0  0  0  0  0
  -11.8700    4.2310    4.3270 C   0  0  0  0  0  0  0  0  0  0  0  0
  -11.1660    3.8760    5.4790 C   0  0  0  0  0  0  0  0  0  0  0  0
  -12.0160    7.8660    4.7150 O   0  0  0  0  0  0  0  0  0  0  0  0
   -6.8990    7.6510    9.7710 O   0  0  0  0  0  0  0  0  0  0  0  0
   -6.7667    3.0992    5.3899 C   0  0  0  0  0  0  0  0  0  0  0  0
   -6.9308    2.1460    4.3822 C   0  0  0  0  0  0  0  0  0  0  0  0
   -8.1291    2.0895    3.6469 C   0  0  0  0  0  0  0  0  0  0  0  0
   -8.3520    1.1509    2.6255 O   0  0  0  0  0  0  0  0  0  0  0  0
   -7.3867    0.2277    2.1199 C   0  0  0  0  0  0  0  0  0  0  0  0
   -6.3859    0.9405    1.1991 C   0  0  0  0  0  0  0  0  0  0  0  0
   -5.2594    0.0528    0.8341 N   0  0  0  0  0  0  0  0  0  0  0  0
   -4.1517    0.8111    0.2020 C   0  0  0  0  0  0  0  0  0  0  0  0
   -4.1618    0.6656   -1.3374 C   0  0  0  0  0  0  0  0  0  0  0  0
   -3.0361    1.4922   -1.9569 C   0  0  0  0  0  0  0  0  0  0  0  0
   -4.0289   -0.6822   -1.7732 O   0  0  0  0  0  0  0  0  0  0  0  0
   -4.5522   -1.6406   -0.8614 C   0  0  0  0  0  0  0  0  0  0  0  0
   -5.0139   -2.8645   -1.6505 C   0  0  0  0  0  0  0  0  0  0  0  0
   -5.7085   -1.0900    0.0029 C   0  0  0  0  0  0  0  0  0  0  0  0
   -9.1488    3.0019    3.9370 C   0  0  0  0  0  0  0  0  0  0  0  0
   -8.9864    3.9676    4.9403 C   0  0  0  0  0  0  0  0  0  0  0  0
   -9.9952    4.9028    5.1696 O   0  0  0  0  0  0  0  0  0  0  0  0
  1  3  4  0
  1 14  4  0
  1  2  1  0
  3  4  4  0
  4  5  4  0
  5  6  4  0
  5 22  1  0
  6  7  1  0
  6 14  4  0
  7  8  1  0
  8  9  4  0
  8 12  4  0
  9 10  4  0
 10 11  4  0
 11 12  4  0
 12 13  1  0
 13 14  1  0
 13 15  1  6
 15 16  4  0
 15 20  4  0
 16 17  4  0
 17 18  4  0
 17 21  1  0
 18 19  4  0
 19 20  4  0
 23 24  4  0
 24 25  4  0
 25 26  1  0
 26 27  1  0
 27 28  1  0
 28 29  1  0
 29 30  1  0
 30 31  1  0
 31 32  1  0
 31 33  1  0
 33 34  1  0
 34 35  1  0
 34 36  1  0
 25 37  4  0
 37 38  4  0
 38 39  1  0
 36 29  1  0
  2 23  4  0
  2 38  4  0
M  END
$$$$

     RDKit          3D

 40 45  0  0  0  0  0  0  0  0999 V2000
   -7.6410    4.9930    6.8080 C   0  0  0  0  0  0  0  0  0  1  0  0
   -7.7310    4.0530    5.7140 C   0  0  0  0  0  0  0  0  0  2  0  0
   -6.4520    5.6300    6.8680 N   0  0  0  0  0  0  0  0  0  0  0  0
   -6.2260    6.5240    7.8670 N   0  0  0  0  0  0  0  0  0  0  0  0
   -7.1930    6.7500    8.7820 C   0  0  0  0  0  0  0  0  0  0  0  0
   -8.4240    6.1170    8.7580 C   0  0  0  0  0  0  0  0  0  0  0  0
   -9.3950    6.3570    9.7450 N   0  0  0  0  0  0  0  0  0  0  0  0
  -10.5620    5.6840    9.7600 C   0  0  0  0  0  0  0  0  0  0  0  0
  -11.5770    5.6820   10.5960 N   0  0  0  0  0  0  0  0  0  0  0  0
  -12.4690    4.7490   10.1080 N   0  0  0  0  0  0  0  0  0  0  0  0
  -12.0160    4.1880    8.9920 N   0  0  0  0  0  0  0  0  0  0  0  0
  -10.8400    4.7900    8.7610 N   0  0  0  0  0  0  0  0  0  0  0  0
   -9.9950    4.4790    7.6090 C   0  0  0  0  0  0  0  0  0  0  0  0
   -8.6630    5.2070    7.7200 C   0  0  0  0  0  0  0  0  0  0  0  0
  -10.7490    4.8610    6.3730 C   0  0  0  0  0  0  0  0  0  0  0  0
  -11.0350    6.2020    6.1170 C   0  0  0  0  0  0  0  0  0  0  0  0
  -11.7370    6.5580    4.9650 C   0  0  0  0  0  0  0  0  0  0  0  0
  -12.1550    5.5730    4.0710 C   0  0  0  0  0  0  0  0  0  0  0  0
  -11.8700    4.2310    4.3270 C   0  0  0  0  0  0  0  0  0  0  0  0
  -11.1660    3.8760    5.4790 C   0  0  0  0  0  0  0  0  0  0  0  0
  -12.0160    7.8660    4.7150 O   0  0  0  0  0  0  0  0  0  0  0  0
   -6.8990    7.6510    9.7710 O   0  0  0  0  0  0  0  0  0  0  0  0
   -6.7942    3.1140    5.4054 N   0  0  0  0  0  0  0  0  0  0  0  0
   -7.1254    2.2823    4.3948 C   0  0  0  0  0  0  0  0  0  0  0  0
   -6.2584    1.1613    3.9343 C   0  0  0  0  0  0  0  0  0  0  0  0
   -8.6722    2.5939    3.8219 S   0  0  0  0  0  0  0  0  0  0  0  0
   -8.9210    3.8897    4.8732 C   0  0  0  0  0  0  0  0  0  0  0  0
  -10.1712    4.7254    4.9195 C   0  0  0  0  0  0  0  0  0  0  0  0
  -10.6595    5.0429    3.5373 C   0  0  0  0  0  0  0  0  0  0  0  0
   -9.9780    5.8086    2.8024 O   0  0  0  0  0  0  0  0  0  0  0  0
  -11.8861    4.4766    3.0523 N   0  0  0  0  0  0  0  0  0  0  0  0
  -12.3981    4.7671    1.7088 C   0  0  0  0  0  0  0  0  0  0  0  0
  -13.5533    3.8238    1.3554 C   0  0  0  0  0  0  0  0  0  0  0  0
  -12.8468    6.2103    1.6196 C   0  0  0  0  0  0  0  0  0  0  0  0
  -12.3284    7.0528    0.6204 C   0  0  0  0  0  0  0  0  0  0  0  0
  -12.7369    8.3878    0.5400 C   0  0  0  0  0  0  0  0  0  0  0  0
  -13.6642    8.8939    1.4548 C   0  0  0  0  0  0  0  0  0  0  0  0
  -14.0583   10.1887    1.3748 F   0  0  0  0  0  0  0  0  0  0  0  0
  -14.1845    8.0653    2.4524 C   0  0  0  0  0  0  0  0  0  0  0  0
  -13.7795    6.7299    2.5366 C   0  0  0  0  0  0  0  0  0  0  0  0
  1  3  4  0
  1 14  4  0
  1  2  1  0
  3  4  4  0
  4  5  4  0
  5  6  4  0
  5 22  1  0
  6  7  1  0
  6 14  4  0
  7  8  1  0
  8  9  4  0
  8 12  4  0
  9 10  4  0
 10 11  4  0
 11 12  4  0
 12 13  1  0
 13 14  1  0
 13 15  1  6
 15 16  4  0
 15 20  4  0
 16 17  4  0
 17 18  4  0
 17 21  1  0
 18 19  4  0
 19 20  4  0
 23 24  4  0
 24 25  1  0
 24 26  4  0
 26 27  4  0
 27 28  1  0
 28 29  1  0
 29 30  2  0
 29 31  1  0
 31 32  1  0
 32 33  1  0
 32 34  1  0
 34 35  4  0
 35 36  4  0
 36 37  4  0
 37 38  1  0
 37 39  4  0
 39 40  4  0
 40 34  4  0
  2 23  4  0
  2 27  4  0
M  END
$$$$

     RDKit          3D

 40 45  0  0  0  0  0  0  0  0999 V2000
   -7.6410    4.9930    6.8080 C   0  0  0  0  0  0  0  0  0  1  0  0
   -7.7310    4.0530    5.7140 C   0  0  0  0  0  0  0  0  0  2  0  0
   -6.4520    5.6300    6.8680 N   0  0  0  0  0  0  0  0  0  0  0  0
   -6.2260    6.5240    7.8670 N   0  0  0  0  0  0  0  0  0  0  0  0
   -7.1930    6.7500    8.7820 C   0  0  0  0  0  0  0  0  0  0  0  0
   -8.4240    6.1170    8.7580 C   0  0  0  0  0  0  0  0  0  0  0  0
   -9.3950    6.3570    9.7450 N   0  0  0  0  0  0  0  0  0  0  0  0
  -10.5620    5.6840    9.7600 C   0  0  0  0  0  0  0  0  0  0  0  0
  -11.5770    5.6820   10.5960 N   0  0  0  0  0  0  0  0  0  0  0  0
  -12.4690    4.7490   10.1080 N   0  0  0  0  0  0  0  0  0  0  0  0
  -12.0160    4.1880    8.9920 N   0  0  0  0  0  0  0  0  0  0  0  0
  -10.8400    4.7900    8.7610 N   0  0  0  0  0  0  0  0  0  0  0  0
   -9.9950    4.4790    7.6090 C   0  0  0  0  0  0  0  0  0  0  0  0
   -8.6630    5.2070    7.7200 C   0  0  0  0  0  0  0  0  0  0  0  0
  -10.7490    4.8610    6.3730 C   0  0  0  0  0  0  0  0  0  0  0  0
  -11.0350    6.2020    6.1170 C   0  0  0  0  0  0  0  0  0  0  0  0
  -11.7370    6.5580    4.9650 C   0  0  0  0  0  0  0  0  0  0  0  0
  -12.1550    5.5730    4.0710 C   0  0  0  0  0  0  0  0  0  0  0  0
  -11.8700    4.2310    4.3270 C   0  0  0  0  0  0  0  0  0  0  0  0
  -11.1660    3.8760    5.4790 C   0  0  0  0  0  0  0  0  0  0  0  0
  -12.0160    7.8660    4.7150 O   0  0  0  0  0  0  0  0  0  0  0  0
   -6.8990    7.6510    9.7710 O   0  0  0  0  0  0  0  0  0  0  0  0
   -6.8483    3.0389    5.4793 N   0  0  0  0  0  0  0  0  0  0  0  0
   -7.1323    2.2850    4.3957 C   0  0  0  0  0  0  0  0  0  0  0  0
   -6.2927    1.1397    3.9464 C   0  0  0  0  0  0  0  0  0  0  0  0
   -8.5523    2.7848    3.6459 S   0  0  0  0  0  0  0  0  0  0  0  0
   -8.8312    4.0162    4.7576 C   0  0  0  0  0  0  0  0  0  0  0  0
   -9.9172    5.0430    4.6134 C   0  0  0  0  0  0  0  0  0  0  0  0
   -9.3688    6.2947    3.9999 C   0  0  0  0  0  0  0  0  0  0  0  0
   -9.1754    7.3079    4.7248 O   0  0  0  0  0  0  0  0  0  0  0  0
   -9.0556    6.3285    2.5993 N   0  0  0  0  0  0  0  0  0  0  0  0
   -8.5133    7.5229    1.9396 C   0  0  0  0  0  0  0  0  0  0  0  0
   -9.5840    8.6175    1.8410 C   0  0  0  0  0  0  0  0  0  0  0  0
   -7.9875    7.1813    0.5577 C   0  0  0  0  0  0  0  0  0  0  0  0
   -6.6518    7.4665    0.2183 C   0  0  0  0  0  0  0  0  0  0  0  0
   -6.1692    7.1792   -1.0632 C   0  0  0  0  0  0  0  0  0  0  0  0
   -7.0134    6.6008   -2.0164 C   0  0  0  0  0  0  0  0  0  0  0  0
   -6.5470    6.3283   -3.2601 F   0  0  0  0  0  0  0  0  0  0  0  0
   -8.3425    6.3117   -1.6906 C   0  0  0  0  0  0  0  0  0  0  0  0
   -8.8275    6.6009   -0.4121 C   0  0  0  0  0  0  0  0  0  0  0  0
  1  3  4  0
  1 14  4  0
  1  2  1  0
  3  4  4  0
  4  5  4  0
  5  6  4  0
  5 22  1  0
  6  7  1  0
  6 14  4  0
  7  8  1  0
  8  9  4  0
  8 12  4  0
  9 10  4  0
 10 11  4  0
 11 12  4  0
 12 13  1  0
 13 14  1  0
 13 15  1  6
 15 16  4  0
 15 20  4  0
 16 17  4  0
 17 18  4  0
 17 21  1  0
 18 19  4  0
 19 20  4  0
 23 24  4  0
 24 25  1  0
 24 26  4  0
 26 27  4  0
 27 28  1  0
 28 29  1  0
 29 30  2  0
 29 31  1  0
 31 32  1  0
 32 33  1  0
 32 34  1  0
 34 35  4  0
 35 36  4  0
 36 37  4  0
 37 38  1  0
 37 39  4  0
 39 40  4  0
 40 34  4  0
  2 23  4  0
  2 27  4  0
M  END
$$$$

     RDKit          3D

 40 45  0  0  0  0  0  0  0  0999 V2000
   -7.6410    4.9930    6.8080 C   0  0  0  0  0  0  0  0  0  1  0  0
   -7.7310    4.0530    5.7140 C   0  0  0  0  0  0  0  0  0  2  0  0
   -6.4520    5.6300    6.8680 N   0  0  0  0  0  0  0  0  0  0  0  0
   -6.2260    6.5240    7.8670 N   0  0  0  0  0  0  0  0  0  0  0  0
   -7.1930    6.7500    8.7820 C   0  0  0  0  0  0  0  0  0  0  0  0
   -8.4240    6.1170    8.7580 C   0  0  0  0  0  0  0  0  0  0  0  0
   -9.3950    6.3570    9.7450 N   0  0  0  0  0  0  0  0  0  0  0  0
  -10.5620    5.6840    9.7600 C   0  0  0  0  0  0  0  0  0  0  0  0
  -11.5770    5.6820   10.5960 N   0  0  0  0  0  0  0  0  0  0  0  0
  -12.4690    4.7490   10.1080 N   0  0  0  0  0  0  0  0  0  0  0  0
  -12.0160    4.1880    8.9920 N   0  0  0  0  0  0  0  0  0  0  0  0
  -10.8400    4.7900    8.7610 N   0  0  0  0  0  0  0  0  0  0  0  0
   -9.9950    4.4790    7.6090 C   0  0  0  0  0  0  0  0  0  0  0  0
   -8.6630    5.2070    7.7200 C   0  0  0  0  0  0  0  0  0  0  0  0
  -10.7490    4.8610    6.3730 C   0  0  0  0  0  0  0  0  0  0  0  0
  -11.0350    6.2020    6.1170 C   0  0  0  0  0  0  0  0  0  0  0  0
  -11.7370    6.5580    4.9650 C   0  0  0  0  0  0  0  0  0  0  0  0
  -12.1550    5.5730    4.0710 C   0  0  0  0  0  0  0  0  0  0  0  0
  -11.8700    4.2310    4.3270 C   0  0  0  0  0  0  0  0  0  0  0  0
  -11.1660    3.8760    5.4790 C   0  0  0  0  0  0  0  0  0  0  0  0
  -12.0160    7.8660    4.7150 O   0  0  0  0  0  0  0  0  0  0  0  0
   -6.8990    7.6510    9.7710 O   0  0  0  0  0  0  0  0  0  0  0  0
   -6.8472    3.0414    5.4758 N   0  0  0  0  0  0  0  0  0  0  0  0
   -7.1393    2.2760    4.4020 C   0  0  0  0  0  0  0  0  0  0  0  0
   -6.3179    1.1071    3.9772 C   0  0  0  0  0  0  0  0  0  0  0  0
   -8.5749    2.7557    3.6724 S   0  0  0  0  0  0  0  0  0  0  0  0
   -8.8471    4.0001    4.7743 C   0  0  0  0  0  0  0  0  0  0  0  0
   -9.9256    5.0311    4.6155 C   0  0  0  0  0  0  0  0  0  0  0  0
   -9.3874    6.2265    3.8912 C   0  0  0  0  0  0  0  0  0  0  0  0
   -8.7261    7.0898    4.5304 O   0  0  0  0  0  0  0  0  0  0  0  0
   -9.5964    6.3677    2.4779 N   0  0  0  0  0  0  0  0  0  0  0  0
   -9.0052    7.4563    1.6937 C   0  0  0  0  0  0  0  0  0  0  0  0
   -7.7205    6.9727    1.0164 C   0  0  0  0  0  0  0  0  0  0  0  0
  -10.0048    7.9740    0.6779 C   0  0  0  0  0  0  0  0  0  0  0  0
  -10.5245    7.1324   -0.3260 C   0  0  0  0  0  0  0  0  0  0  0  0
  -11.4532    7.6216   -1.2497 C   0  0  0  0  0  0  0  0  0  0  0  0
  -11.8763    8.9517   -1.1815 C   0  0  0  0  0  0  0  0  0  0  0  0
  -12.7789    9.4230   -2.0773 F   0  0  0  0  0  0  0  0  0  0  0  0
  -11.3699    9.7952   -0.1893 C   0  0  0  0  0  0  0  0  0  0  0  0
  -10.4391    9.3115    0.7359 C   0  0  0  0  0  0  0  0  0  0  0  0
  1  3  4  0
  1 14  4  0
  1  2  1  0
  3  4  4  0
  4  5  4  0
  5  6  4  0
  5 22  1  0
  6  7  1  0
  6 14  4  0
  7  8  1  0
  8  9  4  0
  8 12  4  0
  9 10  4  0
 10 11  4  0
 11 12  4  0
 12 13  1  0
 13 14  1  0
 13 15  1  6
 15 16  4  0
 15 20  4  0
 16 17  4  0
 17 18  4  0
 17 21  1  0
 18 19  4  0
 19 20  4  0
 23 24  4  0
 24 25  1  0
 24 26  4  0
 26 27  4  0
 27 28  1  0
 28 29  1  0
 29 30  2  0
 29 31  1  0
 31 32  1  0
 32 33  1  0
 32 34  1  0
 34 35  4  0
 35 36  4  0
 36 37  4  0
 37 38  1  0
 37 39  4  0
 39 40  4  0
 40 34  4  0
  2 23  4  0
  2 27  4  0
M  END
$$$$

     RDKit          3D

 43 49  0  0  0  0  0  0  0  0999 V2000
   -7.6410    4.9930    6.8080 C   0  0  0  0  0  0  0  0  0  1  0  0
   -7.7310    4.0530    5.7140 C   0  0  0  0  0  0  0  0  0  2  0  0
   -6.4520    5.6300    6.8680 N   0  0  0  0  0  0  0  0  0  0  0  0
   -6.2260    6.5240    7.8670 N   0  0  0  0  0  0  0  0  0  0  0  0
   -7.1930    6.7500    8.7820 C   0  0  0  0  0  0  0  0  0  0  0  0
   -8.4240    6.1170    8.7580 C   0  0  0  0  0  0  0  0  0  0  0  0
   -9.3950    6.3570    9.7450 N   0  0  0  0  0  0  0  0  0  0  0  0
  -10.5620    5.6840    9.7600 C   0  0  0  0  0  0  0  0  0  0  0  0
  -11.5770    5.6820   10.5960 N   0  0  0  0  0  0  0  0  0  0  0  0
  -12.4690    4.7490   10.1080 N   0  0  0  0  0  0  0  0  0  0  0  0
  -12.0160    4.1880    8.9920 N   0  0  0  0  0  0  0  0  0  0  0  0
  -10.8400    4.7900    8.7610 N   0  0  0  0  0  0  0  0  0  0  0  0
   -9.9950    4.4790    7.6090 C   0  0  0  0  0  0  0  0  0  0  0  0
   -8.6630    5.2070    7.7200 C   0  0  0  0  0  0  0  0  0  0  0  0
  -10.7490    4.8610    6.3730 C   0  0  0  0  0  0  0  0  0  0  0  0
  -11.0350    6.2020    6.1170 C   0  0  0  0  0  0  0  0  0  0  0  0
  -11.7370    6.5580    4.9650 C   0  0  0  0  0  0  0  0  0  0  0  0
  -12.1550    5.5730    4.0710 C   0  0  0  0  0  0  0  0  0  0  0  0
  -11.8700    4.2310    4.3270 C   0  0  0  0  0  0  0  0  0  0  0  0
  -11.1660    3.8760    5.4790 C   0  0  0  0  0  0  0  0  0  0  0  0
  -12.0160    7.8660    4.7150 O   0  0  0  0  0  0  0  0  0  0  0  0
   -6.8990    7.6510    9.7710 O   0  0  0  0  0  0  0  0  0  0  0  0
   -6.7617    3.1542    5.2504 C   0  0  0  0  0  0  0  0  0  0  0  0
   -7.3393    2.1664    4.0030 S   0  0  0  0  0  0  0  0  0  0  0  0
   -8.8859    2.8173    4.0002 C   0  0  0  0  0  0  0  0  0  0  0  0
   -9.9783    2.5130    3.1983 C   0  0  0  0  0  0  0  0  0  0  0  0
   -9.8936    1.5987    2.3330 O   0  0  0  0  0  0  0  0  0  0  0  0
  -11.1411    3.2268    3.3698 N   0  0  0  0  0  0  0  0  0  0  0  0
  -12.3331    2.9265    2.5622 C   0  0  0  0  0  0  0  0  0  0  0  0
  -13.1065    1.7931    3.1825 C   0  0  0  0  0  0  0  0  0  0  0  0
  -13.5237    1.9284    4.3639 O   0  0  0  0  0  0  0  0  0  0  0  0
  -13.3831    0.5644    2.4880 N   0  0  0  0  0  0  0  0  0  0  0  0
  -13.1844    0.3423    1.0545 C   0  0  0  0  0  0  0  0  0  0  0  0
  -14.1250    1.1937    0.2330 C   0  0  0  0  0  0  0  0  0  0  0  0
  -13.5987    2.1122   -0.6938 C   0  0  0  0  0  0  0  0  0  0  0  0
  -14.4484    2.9010   -1.4740 C   0  0  0  0  0  0  0  0  0  0  0  0
  -15.8321    2.7728   -1.3507 C   0  0  0  0  0  0  0  0  0  0  0  0
  -16.3706    1.8516   -0.4507 C   0  0  0  0  0  0  0  0  0  0  0  0
  -15.5286    1.0593    0.3414 C   0  0  0  0  0  0  0  0  0  0  0  0
  -16.2701   -0.1138    1.4247 Cl  0  0  0  0  0  0  0  0  0  0  0  0
  -11.2092    4.2072    4.3329 C   0  0  0  0  0  0  0  0  0  0  0  0
  -10.1309    4.4936    5.1176 N   0  0  0  0  0  0  0  0  0  0  0  0
   -8.9768    3.7996    4.9599 C   0  0  0  0  0  0  0  0  0  0  0  0
  1  3  4  0
  1 14  4  0
  1  2  1  0
  3  4  4  0
  4  5  4  0
  5  6  4  0
  5 22  1  0
  6  7  1  0
  6 14  4  0
  7  8  1  0
  8  9  4  0
  8 12  4  0
  9 10  4  0
 10 11  4  0
 11 12  4  0
 12 13  1  0
 13 14  1  0
 13 15  1  6
 15 16  4  0
 15 20  4  0
 16 17  4  0
 17 18  4  0
 17 21  1  0
 18 19  4  0
 19 20  4  0
 23 24  4  0
 24 25  4  0
 25 26  4  0
 26 27  2  0
 26 28  4  0
 28 29  1  0
 29 30  1  0
 30 31  2  0
 30 32  1  0
 32 33  1  0
 33 34  1  0
 34 35  4  0
 35 36  4  0
 36 37  4  0
 37 38  4  0
 38 39  4  0
 39 40  1  0
 28 41  4  0
 41 42  4  0
 42 43  4  0
 43 25  4  0
 39 34  4  0
  2 23  4  0
  2 43  4  0
M  END
$$$$

     RDKit          3D

 39 44  0  0  0  0  0  0  0  0999 V2000
   -7.6410    4.9930    6.8080 C   0  0  0  0  0  0  0  0  0  1  0  0
   -7.7310    4.0530    5.7140 C   0  0  0  0  0  0  0  0  0  2  0  0
   -6.4520    5.6300    6.8680 N   0  0  0  0  0  0  0  0  0  0  0  0
   -6.2260    6.5240    7.8670 N   0  0  0  0  0  0  0  0  0  0  0  0
   -7.1930    6.7500    8.7820 C   0  0  0  0  0  0  0  0  0  0  0  0
   -8.4240    6.1170    8.7580 C   0  0  0  0  0  0  0  0  0  0  0  0
   -9.3950    6.3570    9.7450 N   0  0  0  0  0  0  0  0  0  0  0  0
  -10.5620    5.6840    9.7600 C   0  0  0  0  0  0  0  0  0  0  0  0
  -11.5770    5.6820   10.5960 N   0  0  0  0  0  0  0  0  0  0  0  0
  -12.4690    4.7490   10.1080 N   0  0  0  0  0  0  0  0  0  0  0  0
  -12.0160    4.1880    8.9920 N   0  0  0  0  0  0  0  0  0  0  0  0
  -10.8400    4.7900    8.7610 N   0  0  0  0  0  0  0  0  0  0  0  0
   -9.9950    4.4790    7.6090 C   0  0  0  0  0  0  0  0  0  0  0  0
   -8.6630    5.2070    7.7200 C   0  0  0  0  0  0  0  0  0  0  0  0
  -10.7490    4.8610    6.3730 C   0  0  0  0  0  0  0  0  0  0  0  0
  -11.0350    6.2020    6.1170 C   0  0  0  0  0  0  0  0  0  0  0  0
  -11.7370    6.5580    4.9650 C   0  0  0  0  0  0  0  0  0  0  0  0
  -12.1550    5.5730    4.0710 C   0  0  0  0  0  0  0  0  0  0  0  0
  -11.8700    4.2310    4.3270 C   0  0  0  0  0  0  0  0  0  0  0  0
  -11.1660    3.8760    5.4790 C   0  0  0  0  0  0  0  0  0  0  0  0
  -12.0160    7.8660    4.7150 O   0  0  0  0  0  0  0  0  0  0  0  0
   -6.8990    7.6510    9.7710 O   0  0  0  0  0  0  0  0  0  0  0  0
   -6.7890    3.1879    5.2856 N   0  0  0  0  0  0  0  0  0  0  0  0
   -7.2720    2.4347    4.3087 N   0  0  0  0  0  0  0  0  0  0  0  0
   -8.5511    2.8086    4.1234 C   0  0  0  0  0  0  0  0  0  0  0  0
   -9.6380    2.0464    2.9138 S   0  0  0  0  0  0  0  0  0  0  0  0
  -10.2943    0.7998    4.0772 C   0  0  0  0  0  0  0  0  0  0  0  0
   -9.2549   -0.2407    4.3852 C   0  0  0  0  0  0  0  0  0  0  0  0
   -8.7614   -0.2799    5.5446 O   0  0  0  0  0  0  0  0  0  0  0  0
   -8.7921   -1.1758    3.3976 N   0  0  0  0  0  0  0  0  0  0  0  0
   -9.5176   -1.4740    2.1586 C   0  0  0  0  0  0  0  0  0  0  0  0
   -8.5738   -2.0936    1.1242 C   0  0  0  0  0  0  0  0  0  0  0  0
  -10.6588   -2.4070    2.4522 C   0  0  0  0  0  0  0  0  0  0  0  0
  -12.0021   -2.1536    2.2013 C   0  0  0  0  0  0  0  0  0  0  0  0
  -12.8438   -3.2016    2.5937 C   0  0  0  0  0  0  0  0  0  0  0  0
  -12.1702   -4.2789    3.1540 C   0  0  0  0  0  0  0  0  0  0  0  0
  -10.5258   -3.9271    3.1647 S   0  0  0  0  0  0  0  0  0  0  0  0
   -8.9035    3.8059    4.9570 N   0  0  0  0  0  0  0  0  0  0  0  0
  -10.1942    4.4890    5.0274 C   0  0  0  0  0  0  0  0  0  0  0  0
  1  3  4  0
  1 14  4  0
  1  2  1  0
  3  4  4  0
  4  5  4  0
  5  6  4  0
  5 22  1  0
  6  7  1  0
  6 14  4  0
  7  8  1  0
  8  9  4  0
  8 12  4  0
  9 10  4  0
 10 11  4  0
 11 12  4  0
 12 13  1  0
 13 14  1  0
 13 15  1  6
 15 16  4  0
 15 20  4  0
 16 17  4  0
 17 18  4  0
 17 21  1  0
 18 19  4  0
 19 20  4  0
 23 24  4  0
 24 25  4  0
 25 26  1  0
 26 27  1  0
 27 28  1  0
 28 29  2  0
 28 30  1  0
 30 31  1  0
 31 32  1  0
 31 33  1  0
 33 34  4  0
 34 35  4  0
 35 36  4  0
 36 37  4  0
 25 38  4  0
 38 39  1  0
 37 33  4  0
  2 23  4  0
  2 38  4  0
M  END
$$$$

     RDKit          3D

 39 44  0  0  0  0  0  0  0  0999 V2000
   -7.6410    4.9930    6.8080 C   0  0  0  0  0  0  0  0  0  1  0  0
   -7.7310    4.0530    5.7140 C   0  0  0  0  0  0  0  0  0  2  0  0
   -6.4520    5.6300    6.8680 N   0  0  0  0  0  0  0  0  0  0  0  0
   -6.2260    6.5240    7.8670 N   0  0  0  0  0  0  0  0  0  0  0  0
   -7.1930    6.7500    8.7820 C   0  0  0  0  0  0  0  0  0  0  0  0
   -8.4240    6.1170    8.7580 C   0  0  0  0  0  0  0  0  0  0  0  0
   -9.3950    6.3570    9.7450 N   0  0  0  0  0  0  0  0  0  0  0  0
  -10.5620    5.6840    9.7600 C   0  0  0  0  0  0  0  0  0  0  0  0
  -11.5770    5.6820   10.5960 N   0  0  0  0  0  0  0  0  0  0  0  0
  -12.4690    4.7490   10.1080 N   0  0  0  0  0  0  0  0  0  0  0  0
  -12.0160    4.1880    8.9920 N   0  0  0  0  0  0  0  0  0  0  0  0
  -10.8400    4.7900    8.7610 N   0  0  0  0  0  0  0  0  0  0  0  0
   -9.9950    4.4790    7.6090 C   0  0  0  0  0  0  0  0  0  0  0  0
   -8.6630    5.2070    7.7200 C   0  0  0  0  0  0  0  0  0  0  0  0
  -10.7490    4.8610    6.3730 C   0  0  0  0  0  0  0  0  0  0  0  0
  -11.0350    6.2020    6.1170 C   0  0  0  0  0  0  0  0  0  0  0  0
  -11.7370    6.5580    4.9650 C   0  0  0  0  0  0  0  0  0  0  0  0
  -12.1550    5.5730    4.0710 C   0  0  0  0  0  0  0  0  0  0  0  0
  -11.8700    4.2310    4.3270 C   0  0  0  0  0  0  0  0  0  0  0  0
  -11.1660    3.8760    5.4790 C   0  0  0  0  0  0  0  0  0  0  0  0
  -12.0160    7.8660    4.7150 O   0  0  0  0  0  0  0  0  0  0  0  0
   -6.8990    7.6510    9.7710 O   0  0  0  0  0  0  0  0  0  0  0  0
   -6.7913    3.1847    5.2882 N   0  0  0  0  0  0  0  0  0  0  0  0
   -7.2715    2.4374    4.3053 N   0  0  0  0  0  0  0  0  0  0  0  0
   -8.5475    2.8184    4.1136 C   0  0  0  0  0  0  0  0  0  0  0  0
   -9.6240    2.0785    2.8844 S   0  0  0  0  0  0  0  0  0  0  0  0
  -10.2700    0.8278    4.0408 C   0  0  0  0  0  0  0  0  0  0  0  0
  -11.2933   -0.0168    3.3503 C   0  0  0  0  0  0  0  0  0  0  0  0
  -12.4902    0.0262    3.7402 O   0  0  0  0  0  0  0  0  0  0  0  0
  -10.9030   -0.8670    2.2583 N   0  0  0  0  0  0  0  0  0  0  0  0
  -11.8052   -1.7457    1.5036 C   0  0  0  0  0  0  0  0  0  0  0  0
  -12.9323   -0.9589    0.8249 C   0  0  0  0  0  0  0  0  0  0  0  0
  -12.3189   -2.8702    2.3670 C   0  0  0  0  0  0  0  0  0  0  0  0
  -11.7764   -4.1497    2.4178 C   0  0  0  0  0  0  0  0  0  0  0  0
  -12.4402   -5.0023    3.3085 C   0  0  0  0  0  0  0  0  0  0  0  0
  -13.5075   -4.4042    3.9645 C   0  0  0  0  0  0  0  0  0  0  0  0
  -13.6229   -2.8137    3.4344 S   0  0  0  0  0  0  0  0  0  0  0  0
   -8.9011    3.8123    4.9514 N   0  0  0  0  0  0  0  0  0  0  0  0
  -10.1879    4.5029    5.0188 C   0  0  0  0  0  0  0  0  0  0  0  0
  1  3  4  0
  1 14  4  0
  1  2  1  0
  3  4  4  0
  4  5  4  0
  5  6  4  0
  5 22  1  0
  6  7  1  0
  6 14  4  0
  7  8  1  0
  8  9  4  0
  8 12  4  0
  9 10  4  0
 10 11  4  0
 11 12  4  0
 12 13  1  0
 13 14  1  0
 13 15  1  6
 15 16  4  0
 15 20  4  0
 16 17  4  0
 17 18  4  0
 17 21  1  0
 18 19  4  0
 19 20  4  0
 23 24  4  0
 24 25  4  0
 25 26  1  0
 26 27  1  0
 27 28  1  0
 28 29  2  0
 28 30  1  0
 30 31  1  0
 31 32  1  0
 31 33  1  0
 33 34  4  0
 34 35  4  0
 35 36  4  0
 36 37  4  0
 25 38  4  0
 38 39  1  0
 37 33  4  0
  2 23  4  0
  2 38  4  0
M  END
$$$$

     RDKit          3D

 49 56  0  0  0  0  0  0  0  0999 V2000
   -7.6410    4.9930    6.8080 C   0  0  0  0  0  0  0  0  0  1  0  0
   -7.7310    4.0530    5.7140 C   0  0  0  0  0  0  0  0  0  2  0  0
   -6.4520    5.6300    6.8680 N   0  0  0  0  0  0  0  0  0  0  0  0
   -6.2260    6.5240    7.8670 N   0  0  0  0  0  0  0  0  0  0  0  0
   -7.1930    6.7500    8.7820 C   0  0  0  0  0  0  0  0  0  0  0  0
   -8.4240    6.1170    8.7580 C   0  0  0  0  0  0  0  0  0  0  0  0
   -9.3950    6.3570    9.7450 N   0  0  0  0  0  0  0  0  0  0  0  0
  -10.5620    5.6840    9.7600 C   0  0  0  0  0  0  0  0  0  0  0  0
  -11.5770    5.6820   10.5960 N   0  0  0  0  0  0  0  0  0  0  0  0
  -12.4690    4.7490   10.1080 N   0  0  0  0  0  0  0  0  0  0  0  0
  -12.0160    4.1880    8.9920 N   0  0  0  0  0  0  0  0  0  0  0  0
  -10.8400    4.7900    8.7610 N   0  0  0  0  0  0  0  0  0  0  0  0
   -9.9950    4.4790    7.6090 C   0  0  0  0  0  0  0  0  0  0  0  0
   -8.6630    5.2070    7.7200 C   0  0  0  0  0  0  0  0  0  0  0  0
  -10.7490    4.8610    6.3730 C   0  0  0  0  0  0  0  0  0  0  0  0
  -11.0350    6.2020    6.1170 C   0  0  0  0  0  0  0  0  0  0  0  0
  -11.7370    6.5580    4.9650 C   0  0  0  0  0  0  0  0  0  0  0  0
  -12.1550    5.5730    4.0710 C   0  0  0  0  0  0  0  0  0  0  0  0
  -11.8700    4.2310    4.3270 C   0  0  0  0  0  0  0  0  0  0  0  0
  -11.1660    3.8760    5.4790 C   0  0  0  0  0  0  0  0  0  0  0  0
  -12.0160    7.8660    4.7150 O   0  0  0  0  0  0  0  0  0  0  0  0
   -6.8990    7.6510    9.7710 O   0  0  0  0  0  0  0  0  0  0  0  0
   -6.9044    2.9333    5.5131 C   0  0  0  0  0  0  0  0  0  0  0  0
   -7.4366    1.9671    4.2287 S   0  0  0  0  0  0  0  0  0  0  0  0
   -8.7710    2.9207    3.8864 C   0  0  0  0  0  0  0  0  0  0  0  0
   -9.6787    2.7116    2.9072 N   0  0  0  0  0  0  0  0  0  0  0  0
  -10.6858    3.6098    2.7380 C   0  0  0  0  0  0  0  0  0  0  0  0
  -10.7694    4.7350    3.5277 N   0  0  0  0  0  0  0  0  0  0  0  0
  -11.8019    5.7378    3.2234 C   0  0  0  0  0  0  0  0  0  0  0  0
  -11.3066    6.6761    2.1140 C   0  0  0  0  0  0  0  0  0  0  0  0
  -12.2562    7.8100    1.8167 C   0  0  0  0  0  0  0  0  0  0  0  0
  -13.2917    7.9647    2.5191 O   0  0  0  0  0  0  0  0  0  0  0  0
  -11.9659    8.7702    0.7884 N   0  0  0  0  0  0  0  0  0  0  0  0
  -10.8599    8.6483   -0.1619 C   0  0  0  0  0  0  0  0  0  0  0  0
  -11.2336    7.7172   -1.2844 C   0  0  0  0  0  0  0  0  0  0  0  0
  -10.4829    6.5679   -1.5463 C   0  0  0  0  0  0  0  0  0  0  0  0
  -10.8304    5.7354   -2.6101 C   0  0  0  0  0  0  0  0  0  0  0  0
  -11.9306    6.0575   -3.4291 C   0  0  0  0  0  0  0  0  0  0  0  0
  -12.3072    5.1974   -4.5322 N   0  0  0  0  0  0  0  0  0  0  0  0
  -13.7423    4.8887   -4.7252 C   0  0  0  0  0  0  0  0  0  0  0  0
  -14.0132    3.9088   -5.8876 C   0  0  0  0  0  0  0  0  0  0  0  0
  -12.9442    3.0139   -6.0842 O   0  0  0  0  0  0  0  0  0  0  0  0
  -11.8118    3.7487   -6.4860 C   0  0  0  0  0  0  0  0  0  0  0  0
  -11.2524    4.5002   -5.2879 C   0  0  0  0  0  0  0  0  0  0  0  0
  -12.6459    7.1935   -3.1542 N   0  0  0  0  0  0  0  0  0  0  0  0
  -12.3215    8.0149   -2.1167 C   0  0  0  0  0  0  0  0  0  0  0  0
   -9.8506    4.9452    4.5316 C   0  0  0  0  0  0  0  0  0  0  0  0
   -9.9005    5.9870    5.2393 O   0  0  0  0  0  0  0  0  0  0  0  0
   -8.8373    3.9971    4.7422 C   0  0  0  0  0  0  0  0  0  0  0  0
  1  3  4  0
  1 14  4  0
  1  2  1  0
  3  4  4  0
  4  5  4  0
  5  6  4  0
  5 22  1  0
  6  7  1  0
  6 14  4  0
  7  8  1  0
  8  9  4  0
  8 12  4  0
  9 10  4  0
 10 11  4  0
 11 12  4  0
 12 13  1  0
 13 14  1  0
 13 15  1  6
 15 16  4  0
 15 20  4  0
 16 17  4  0
 17 18  4  0
 17 21  1  0
 18 19  4  0
 19 20  4  0
 23 24  4  0
 24 25  4  0
 25 26  4  0
 26 27  4  0
 27 28  4  0
 28 29  1  0
 29 30  1  0
 30 31  1  0
 31 32  2  0
 31 33  1  0
 33 34  1  0
 34 35  1  0
 35 36  4  0
 36 37  4  0
 37 38  4  0
 38 39  1  0
 39 40  1  0
 40 41  1  0
 41 42  1  0
 42 43  1  0
 43 44  1  0
 38 45  4  0
 45 46  4  0
 28 47  4  0
 47 48  2  0
 47 49  4  0
 49 25  4  0
 46 35  4  0
 44 39  1  0
  2 23  4  0
  2 49  4  0
M  CHG  1  45   1
M  END
$$$$

     RDKit          3D

 58 66  0  0  0  0  0  0  0  0999 V2000
   -7.6410    4.9930    6.8080 C   0  0  0  0  0  0  0  0  0  1  0  0
   -7.7310    4.0530    5.7140 C   0  0  0  0  0  0  0  0  0  2  0  0
   -6.4520    5.6300    6.8680 N   0  0  0  0  0  0  0  0  0  0  0  0
   -6.2260    6.5240    7.8670 N   0  0  0  0  0  0  0  0  0  0  0  0
   -7.1930    6.7500    8.7820 C   0  0  0  0  0  0  0  0  0  0  0  0
   -8.4240    6.1170    8.7580 C   0  0  0  0  0  0  0  0  0  0  0  0
   -9.3950    6.3570    9.7450 N   0  0  0  0  0  0  0  0  0  0  0  0
  -10.5620    5.6840    9.7600 C   0  0  0  0  0  0  0  0  0  0  0  0
  -11.5770    5.6820   10.5960 N   0  0  0  0  0  0  0  0  0  0  0  0
  -12.4690    4.7490   10.1080 N   0  0  0  0  0  0  0  0  0  0  0  0
  -12.0160    4.1880    8.9920 N   0  0  0  0  0  0  0  0  0  0  0  0
  -10.8400    4.7900    8.7610 N   0  0  0  0  0  0  0  0  0  0  0  0
   -9.9950    4.4790    7.6090 C   0  0  0  0  0  0  0  0  0  0  0  0
   -8.6630    5.2070    7.7200 C   0  0  0  0  0  0  0  0  0  0  0  0
  -10.7490    4.8610    6.3730 C   0  0  0  0  0  0  0  0  0  0  0  0
  -11.0350    6.2020    6.1170 C   0  0  0  0  0  0  0  0  0  0  0  0
  -11.7370    6.5580    4.9650 C   0  0  0  0  0  0  0  0  0  0  0  0
  -12.1550    5.5730    4.0710 C   0  0  0  0  0  0  0  0  0  0  0  0
  -11.8700    4.2310    4.3270 C   0  0  0  0  0  0  0  0  0  0  0  0
  -11.1660    3.8760    5.4790 C   0  0  0  0  0  0  0  0  0  0  0  0
  -12.0160    7.8660    4.7150 O   0  0  0  0  0  0  0  0  0  0  0  0
   -6.8990    7.6510    9.7710 O   0  0  0  0  0  0  0  0  0  0  0  0
   -6.8745    2.9993    5.6016 N   0  0  0  0  0  0  0  0  0  0  0  0
   -6.9500    2.0227    4.6643 C   0  0  0  0  0  0  0  0  0  0  0  0
   -5.9865    1.0073    4.6488 C   0  0  0  0  0  0  0  0  0  0  0  0
   -6.0650   -0.0198    3.7066 C   0  0  0  0  0  0  0  0  0  0  0  0
   -7.1050   -0.0384    2.7760 C   0  0  0  0  0  0  0  0  0  0  0  0
   -8.0732    0.9704    2.7829 C   0  0  0  0  0  0  0  0  0  0  0  0
   -8.0081    2.0182    3.7274 C   0  0  0  0  0  0  0  0  0  0  0  0
   -8.9706    3.0538    3.7826 C   0  0  0  0  0  0  0  0  0  0  0  0
  -10.1132    3.0589    2.8488 C   0  0  0  0  0  0  0  0  0  0  0  0
  -11.2602    2.7402    3.2716 O   0  0  0  0  0  0  0  0  0  0  0  0
   -9.9165    3.4366    1.4778 N   0  0  0  0  0  0  0  0  0  0  0  0
  -10.9888    3.3668    0.4891 C   0  0  0  0  0  0  0  0  0  0  0  0
  -11.2134    1.9178    0.0496 C   0  0  0  0  0  0  0  0  0  0  0  0
  -12.3118    1.8375   -0.9097 N   0  0  0  0  0  0  0  0  0  0  0  0
  -12.1997    2.3220   -2.2560 C   0  0  0  0  0  0  0  0  0  0  0  0
  -11.0930    2.7363   -2.6965 O   0  0  0  0  0  0  0  0  0  0  0  0
  -13.3806    2.3158   -3.1486 C   0  0  0  0  0  0  0  0  0  0  0  0
  -13.3857    1.5029   -4.3127 C   0  0  0  0  0  0  0  0  0  0  0  0
  -12.2204    0.5821   -4.6119 C   0  0  0  0  0  0  0  0  0  0  0  0
  -14.5044    1.5607   -5.1818 C   0  0  0  0  0  0  0  0  0  1  0  0
  -14.5618    0.8194   -6.4598 C   0  0  0  0  0  0  0  0  0  2  0  0
  -13.5828    1.0168   -7.4473 C   0  0  0  0  0  0  0  0  0  0  0  0
  -13.6582    0.3308   -8.6632 C   0  0  0  0  0  0  0  0  0  0  0  0
  -14.7195   -0.5534   -8.9117 C   0  0  0  0  0  0  0  0  0  0  0  0
  -14.8162   -1.2927  -10.2124 C   0  0  0  0  0  0  0  0  0  0  0  0
  -15.7096   -0.7330   -7.9347 C   0  0  0  0  0  0  0  0  0  0  0  0
  -15.6342   -0.0477   -6.7188 C   0  0  0  0  0  0  0  0  0  0  0  0
  -15.5787    2.3209   -4.8475 N   0  0  0  0  0  0  0  0  0  0  0  0
  -15.6204    3.0797   -3.7256 C   0  0  0  0  0  0  0  0  0  0  0  0
  -16.7600    3.8475   -3.4582 C   0  0  0  0  0  0  0  0  0  0  0  0
  -16.8058    4.6656   -2.3286 C   0  0  0  0  0  0  0  0  0  0  0  0
  -15.7120    4.7259   -1.4642 C   0  0  0  0  0  0  0  0  0  0  0  0
  -14.5706    3.9602   -1.7191 C   0  0  0  0  0  0  0  0  0  0  0  0
  -14.5119    3.1145   -2.8494 C   0  0  0  0  0  0  0  0  0  0  0  0
   -8.8457    4.0804    4.7515 C   0  0  0  0  0  0  0  0  0  0  0  0
   -9.8336    5.2279    4.7830 C   0  0  0  0  0  0  0  0  0  0  0  0
  1  3  4  0
  1 14  4  0
  1  2  1  0
  3  4  4  0
  4  5  4  0
  5  6  4  0
  5 22  1  0
  6  7  1  0
  6 14  4  0
  7  8  1  0
  8  9  4  0
  8 12  4  0
  9 10  4  0
 10 11  4  0
 11 12  4  0
 12 13  1  0
 13 14  1  0
 13 15  1  6
 15 16  4  0
 15 20  4  0
 16 17  4  0
 17 18  4  0
 17 21  1  0
 18 19  4  0
 19 20  4  0
 23 24  4  0
 24 25  4  0
 25 26  4  0
 26 27  4  0
 27 28  4  0
 28 29  4  0
 29 30  4  0
 30 31  1  0
 31 32  2  0
 31 33  1  0
 33 34  1  0
 34 35  1  0
 35 36  1  0
 36 37  1  0
 37 38  2  0
 37 39  1  0
 39 40  4  0
 40 41  1  0
 40 42  4  0
 42 43  1  0
 43 44  4  0
 44 45  4  0
 45 46  4  0
 46 47  1  0
 46 48  4  0
 48 49  4  0
 42 50  4  0
 50 51  4  0
 51 52  4  0
 52 53  4  0
 53 54  4  0
 54 55  4  0
 55 56  4  0
 30 57  4  0
 57 58  1  0
 29 24  4  0
 56 39  4  0
 49 43  4  0
 56 51  4  0
  2 23  4  0
  2 57  4  0
M  END
$$$$

     RDKit          3D

 58 66  0  0  0  0  0  0  0  0999 V2000
   -7.6410    4.9930    6.8080 C   0  0  0  0  0  0  0  0  0  1  0  0
   -7.7310    4.0530    5.7140 C   0  0  0  0  0  0  0  0  0  2  0  0
   -6.4520    5.6300    6.8680 N   0  0  0  0  0  0  0  0  0  0  0  0
   -6.2260    6.5240    7.8670 N   0  0  0  0  0  0  0  0  0  0  0  0
   -7.1930    6.7500    8.7820 C   0  0  0  0  0  0  0  0  0  0  0  0
   -8.4240    6.1170    8.7580 C   0  0  0  0  0  0  0  0  0  0  0  0
   -9.3950    6.3570    9.7450 N   0  0  0  0  0  0  0  0  0  0  0  0
  -10.5620    5.6840    9.7600 C   0  0  0  0  0  0  0  0  0  0  0  0
  -11.5770    5.6820   10.5960 N   0  0  0  0  0  0  0  0  0  0  0  0
  -12.4690    4.7490   10.1080 N   0  0  0  0  0  0  0  0  0  0  0  0
  -12.0160    4.1880    8.9920 N   0  0  0  0  0  0  0  0  0  0  0  0
  -10.8400    4.7900    8.7610 N   0  0  0  0  0  0  0  0  0  0  0  0
   -9.9950    4.4790    7.6090 C   0  0  0  0  0  0  0  0  0  0  0  0
   -8.6630    5.2070    7.7200 C   0  0  0  0  0  0  0  0  0  0  0  0
  -10.7490    4.8610    6.3730 C   0  0  0  0  0  0  0  0  0  0  0  0
  -11.0350    6.2020    6.1170 C   0  0  0  0  0  0  0  0  0  0  0  0
  -11.7370    6.5580    4.9650 C   0  0  0  0  0  0  0  0  0  0  0  0
  -12.1550    5.5730    4.0710 C   0  0  0  0  0  0  0  0  0  0  0  0
  -11.8700    4.2310    4.3270 C   0  0  0  0  0  0  0  0  0  0  0  0
  -11.1660    3.8760    5.4790 C   0  0  0  0  0  0  0  0  0  0  0  0
  -12.0160    7.8660    4.7150 O   0  0  0  0  0  0  0  0  0  0  0  0
   -6.8990    7.6510    9.7710 O   0  0  0  0  0  0  0  0  0  0  0  0
   -6.8244    3.0542    5.5543 N   0  0  0  0  0  0  0  0  0  0  0  0
   -6.8712    2.0891    4.6052 C   0  0  0  0  0  0  0  0  0  0  0  0
   -5.8467    1.1361    4.5429 C   0  0  0  0  0  0  0  0  0  0  0  0
   -5.8912    0.1200    3.5879 C   0  0  0  0  0  0  0  0  0  0  0  0
   -6.9595    0.0484    2.6926 C   0  0  0  0  0  0  0  0  0  0  0  0
   -7.9878    0.9943    2.7454 C   0  0  0  0  0  0  0  0  0  0  0  0
   -7.9545    2.0360    3.7001 C   0  0  0  0  0  0  0  0  0  0  0  0
   -8.9697    3.0189    3.7943 C   0  0  0  0  0  0  0  0  0  0  0  0
  -10.1163    2.9938    2.8606 C   0  0  0  0  0  0  0  0  0  0  0  0
  -11.2709    2.7410    3.3002 O   0  0  0  0  0  0  0  0  0  0  0  0
   -9.9115    3.2824    1.4691 N   0  0  0  0  0  0  0  0  0  0  0  0
  -10.9588    3.1057    0.4653 C   0  0  0  0  0  0  0  0  0  0  0  0
  -11.1306    1.6208    0.1386 C   0  0  0  0  0  0  0  0  0  0  0  0
  -12.0904    1.4295   -0.9474 N   0  0  0  0  0  0  0  0  0  0  0  0
  -12.3252    0.1315   -1.5076 C   0  0  0  0  0  0  0  0  0  0  0  0
  -11.7969   -0.8910   -0.9904 O   0  0  0  0  0  0  0  0  0  0  0  0
  -13.1687   -0.0142   -2.7144 C   0  0  0  0  0  0  0  0  0  0  0  0
  -14.5630    0.2400   -2.6429 C   0  0  0  0  0  0  0  0  0  0  0  0
  -15.2141    0.5486   -1.3104 C   0  0  0  0  0  0  0  0  0  0  0  0
  -15.3320    0.1686   -3.8325 C   0  0  0  0  0  0  0  0  0  1  0  0
  -16.7759    0.4899   -3.8801 C   0  0  0  0  0  0  0  0  0  2  0  0
  -17.2589    1.7244   -3.4142 C   0  0  0  0  0  0  0  0  0  0  0  0
  -18.6217    2.0280   -3.4978 C   0  0  0  0  0  0  0  0  0  0  0  0
  -19.5198    1.1045   -4.0538 C   0  0  0  0  0  0  0  0  0  0  0  0
  -20.9753    1.4461   -4.1772 C   0  0  0  0  0  0  0  0  0  0  0  0
  -19.0325   -0.1092   -4.5607 C   0  0  0  0  0  0  0  0  0  0  0  0
  -17.6712   -0.4150   -4.4725 C   0  0  0  0  0  0  0  0  0  0  0  0
  -14.7399   -0.2191   -4.9917 N   0  0  0  0  0  0  0  0  0  0  0  0
  -13.4207   -0.5135   -5.0833 C   0  0  0  0  0  0  0  0  0  0  0  0
  -12.8869   -0.9056   -6.3178 C   0  0  0  0  0  0  0  0  0  0  0  0
  -11.5272   -1.1920   -6.4347 C   0  0  0  0  0  0  0  0  0  0  0  0
  -10.6910   -1.0760   -5.3234 C   0  0  0  0  0  0  0  0  0  0  0  0
  -11.2121   -0.6847   -4.0871 C   0  0  0  0  0  0  0  0  0  0  0  0
  -12.5903   -0.4070   -3.9463 C   0  0  0  0  0  0  0  0  0  0  0  0
   -8.8738    4.0358    4.7803 C   0  0  0  0  0  0  0  0  0  0  0  0
   -9.9099    5.1387    4.8514 C   0  0  0  0  0  0  0  0  0  0  0  0
  1  3  4  0
  1 14  4  0
  1  2  1  0
  3  4  4  0
  4  5  4  0
  5  6  4  0
  5 22  1  0
  6  7  1  0
  6 14  4  0
  7  8  1  0
  8  9  4  0
  8 12  4  0
  9 10  4  0
 10 11  4  0
 11 12  4  0
 12 13  1  0
 13 14  1  0
 13 15  1  6
 15 16  4  0
 15 20  4  0
 16 17  4  0
 17 18  4  0
 17 21  1  0
 18 19  4  0
 19 20  4  0
 23 24  4  0
 24 25  4  0
 25 26  4  0
 26 27  4  0
 27 28  4  0
 28 29  4  0
 29 30  4  0
 30 31  1  0
 31 32  2  0
 31 33  1  0
 33 34  1  0
 34 35  1  0
 35 36  1  0
 36 37  1  0
 37 38  2  0
 37 39  1  0
 39 40  4  0
 40 41  1  0
 40 42  4  0
 42 43  1  0
 43 44  4  0
 44 45  4  0
 45 46  4  0
 46 47  1  0
 46 48  4  0
 48 49  4  0
 42 50  4  0
 50 51  4  0
 51 52  4  0
 52 53  4  0
 53 54  4  0
 54 55  4  0
 55 56  4  0
 30 57  4  0
 57 58  1  0
 29 24  4  0
 56 39  4  0
 49 43  4  0
 56 51  4  0
  2 23  4  0
  2 57  4  0
M  END
$$$$

     RDKit          3D

 58 66  0  0  0  0  0  0  0  0999 V2000
   -7.6410    4.9930    6.8080 C   0  0  0  0  0  0  0  0  0  1  0  0
   -7.7310    4.0530    5.7140 C   0  0  0  0  0  0  0  0  0  2  0  0
   -6.4520    5.6300    6.8680 N   0  0  0  0  0  0  0  0  0  0  0  0
   -6.2260    6.5240    7.8670 N   0  0  0  0  0  0  0  0  0  0  0  0
   -7.1930    6.7500    8.7820 C   0  0  0  0  0  0  0  0  0  0  0  0
   -8.4240    6.1170    8.7580 C   0  0  0  0  0  0  0  0  0  0  0  0
   -9.3950    6.3570    9.7450 N   0  0  0  0  0  0  0  0  0  0  0  0
  -10.5620    5.6840    9.7600 C   0  0  0  0  0  0  0  0  0  0  0  0
  -11.5770    5.6820   10.5960 N   0  0  0  0  0  0  0  0  0  0  0  0
  -12.4690    4.7490   10.1080 N   0  0  0  0  0  0  0  0  0  0  0  0
  -12.0160    4.1880    8.9920 N   0  0  0  0  0  0  0  0  0  0  0  0
  -10.8400    4.7900    8.7610 N   0  0  0  0  0  0  0  0  0  0  0  0
   -9.9950    4.4790    7.6090 C   0  0  0  0  0  0  0  0  0  0  0  0
   -8.6630    5.2070    7.7200 C   0  0  0  0  0  0  0  0  0  0  0  0
  -10.7490    4.8610    6.3730 C   0  0  0  0  0  0  0  0  0  0  0  0
  -11.0350    6.2020    6.1170 C   0  0  0  0  0  0  0  0  0  0  0  0
  -11.7370    6.5580    4.9650 C   0  0  0  0  0  0  0  0  0  0  0  0
  -12.1550    5.5730    4.0710 C   0  0  0  0  0  0  0  0  0  0  0  0
  -11.8700    4.2310    4.3270 C   0  0  0  0  0  0  0  0  0  0  0  0
  -11.1660    3.8760    5.4790 C   0  0  0  0  0  0  0  0  0  0  0  0
  -12.0160    7.8660    4.7150 O   0  0  0  0  0  0  0  0  0  0  0  0
   -6.8990    7.6510    9.7710 O   0  0  0  0  0  0  0  0  0  0  0  0
   -6.8144    3.0676    5.5360 N   0  0  0  0  0  0  0  0  0  0  0  0
   -6.8819    2.0798    4.6111 C   0  0  0  0  0  0  0  0  0  0  0  0
   -5.8436    1.1438    4.5288 C   0  0  0  0  0  0  0  0  0  0  0  0
   -5.9180    0.0895    3.6161 C   0  0  0  0  0  0  0  0  0  0  0  0
   -7.0273   -0.0326    2.7802 C   0  0  0  0  0  0  0  0  0  0  0  0
   -8.0681    0.8983    2.8513 C   0  0  0  0  0  0  0  0  0  0  0  0
   -8.0069    1.9765    3.7637 C   0  0  0  0  0  0  0  0  0  0  0  0
   -9.0367    2.9438    3.8778 C   0  0  0  0  0  0  0  0  0  0  0  0
  -10.2557    2.8300    3.0455 C   0  0  0  0  0  0  0  0  0  0  0  0
  -10.1703    2.9411    1.7909 O   0  0  0  0  0  0  0  0  0  0  0  0
  -11.5234    2.5757    3.6626 N   0  0  0  0  0  0  0  0  0  0  0  0
  -12.5564    1.7793    3.0054 C   0  0  0  0  0  0  0  0  0  0  0  0
  -12.5688    0.3750    3.6098 C   0  0  0  0  0  0  0  0  0  0  0  0
  -13.5503   -0.4773    2.9423 N   0  0  0  0  0  0  0  0  0  0  0  0
  -14.9581   -0.3722    3.1906 C   0  0  0  0  0  0  0  0  0  0  0  0
  -15.4177    0.5915    3.8604 O   0  0  0  0  0  0  0  0  0  0  0  0
  -15.8729   -1.4226    2.6891 C   0  0  0  0  0  0  0  0  0  0  0  0
  -15.9832   -1.6603    1.2938 C   0  0  0  0  0  0  0  0  0  0  0  0
  -15.3155   -0.7268    0.3041 C   0  0  0  0  0  0  0  0  0  0  0  0
  -16.7464   -2.7702    0.8481 C   0  0  0  0  0  0  0  0  0  1  0  0
  -16.8040   -3.1944   -0.5702 C   0  0  0  0  0  0  0  0  0  2  0  0
  -15.6257   -3.4077   -1.3064 C   0  0  0  0  0  0  0  0  0  0  0  0
  -15.6883   -3.8794   -2.6210 C   0  0  0  0  0  0  0  0  0  0  0  0
  -16.9288   -4.1515   -3.2164 C   0  0  0  0  0  0  0  0  0  0  0  0
  -16.9781   -4.7207   -4.6048 C   0  0  0  0  0  0  0  0  0  0  0  0
  -18.1038   -3.9800   -2.4717 C   0  0  0  0  0  0  0  0  0  0  0  0
  -18.0418   -3.5005   -1.1585 C   0  0  0  0  0  0  0  0  0  0  0  0
  -17.4433   -3.5107    1.7487 N   0  0  0  0  0  0  0  0  0  0  0  0
  -17.4114   -3.2704    3.0812 C   0  0  0  0  0  0  0  0  0  0  0  0
  -18.1544   -4.0864    3.9435 C   0  0  0  0  0  0  0  0  0  0  0  0
  -18.0937   -3.8883    5.3233 C   0  0  0  0  0  0  0  0  0  0  0  0
  -17.2832   -2.8811    5.8492 C   0  0  0  0  0  0  0  0  0  0  0  0
  -16.5376   -2.0598    4.9971 C   0  0  0  0  0  0  0  0  0  0  0  0
  -16.6032   -2.2319    3.5960 C   0  0  0  0  0  0  0  0  0  0  0  0
   -8.9075    3.9977    4.8206 C   0  0  0  0  0  0  0  0  0  0  0  0
   -9.9359    5.1084    4.8804 C   0  0  0  0  0  0  0  0  0  0  0  0
  1  3  4  0
  1 14  4  0
  1  2  1  0
  3  4  4  0
  4  5  4  0
  5  6  4  0
  5 22  1  0
  6  7  1  0
  6 14  4  0
  7  8  1  0
  8  9  4  0
  8 12  4  0
  9 10  4  0
 10 11  4  0
 11 12  4  0
 12 13  1  0
 13 14  1  0
 13 15  1  6
 15 16  4  0
 15 20  4  0
 16 17  4  0
 17 18  4  0
 17 21  1  0
 18 19  4  0
 19 20  4  0
 23 24  4  0
 24 25  4  0
 25 26  4  0
 26 27  4  0
 27 28  4  0
 28 29  4  0
 29 30  4  0
 30 31  1  0
 31 32  2  0
 31 33  1  0
 33 34  1  0
 34 35  1  0
 35 36  1  0
 36 37  1  0
 37 38  2  0
 37 39  1  0
 39 40  4  0
 40 41  1  0
 40 42  4  0
 42 43  1  0
 43 44  4  0
 44 45  4  0
 45 46  4  0
 46 47  1  0
 46 48  4  0
 48 49  4  0
 42 50  4  0
 50 51  4  0
 51 52  4  0
 52 53  4  0
 53 54  4  0
 54 55  4  0
 55 56  4  0
 30 57  4  0
 57 58  1  0
 29 24  4  0
 56 39  4  0
 49 43  4  0
 56 51  4  0
  2 23  4  0
  2 57  4  0
M  END
$$$$

     RDKit          3D

 49 56  0  0  0  0  0  0  0  0999 V2000
   -7.6410    4.9930    6.8080 C   0  0  0  0  0  0  0  0  0  1  0  0
   -7.7310    4.0530    5.7140 C   0  0  0  0  0  0  0  0  0  2  0  0
   -6.4520    5.6300    6.8680 N   0  0  0  0  0  0  0  0  0  0  0  0
   -6.2260    6.5240    7.8670 N   0  0  0  0  0  0  0  0  0  0  0  0
   -7.1930    6.7500    8.7820 C   0  0  0  0  0  0  0  0  0  0  0  0
   -8.4240    6.1170    8.7580 C   0  0  0  0  0  0  0  0  0  0  0  0
   -9.3950    6.3570    9.7450 N   0  0  0  0  0  0  0  0  0  0  0  0
  -10.5620    5.6840    9.7600 C   0  0  0  0  0  0  0  0  0  0  0  0
  -11.5770    5.6820   10.5960 N   0  0  0  0  0  0  0  0  0  0  0  0
  -12.4690    4.7490   10.1080 N   0  0  0  0  0  0  0  0  0  0  0  0
  -12.0160    4.1880    8.9920 N   0  0  0  0  0  0  0  0  0  0  0  0
  -10.8400    4.7900    8.7610 N   0  0  0  0  0  0  0  0  0  0  0  0
   -9.9950    4.4790    7.6090 C   0  0  0  0  0  0  0  0  0  0  0  0
   -8.6630    5.2070    7.7200 C   0  0  0  0  0  0  0  0  0  0  0  0
  -10.7490    4.8610    6.3730 C   0  0  0  0  0  0  0  0  0  0  0  0
  -11.0350    6.2020    6.1170 C   0  0  0  0  0  0  0  0  0  0  0  0
  -11.7370    6.5580    4.9650 C   0  0  0  0  0  0  0  0  0  0  0  0
  -12.1550    5.5730    4.0710 C   0  0  0  0  0  0  0  0  0  0  0  0
  -11.8700    4.2310    4.3270 C   0  0  0  0  0  0  0  0  0  0  0  0
  -11.1660    3.8760    5.4790 C   0  0  0  0  0  0  0  0  0  0  0  0
  -12.0160    7.8660    4.7150 O   0  0  0  0  0  0  0  0  0  0  0  0
   -6.8990    7.6510    9.7710 O   0  0  0  0  0  0  0  0  0  0  0  0
   -6.8906    3.0268    5.2621 C   0  0  0  0  0  0  0  0  0  1  0  0
   -5.6166    2.6316    5.9046 C   0  0  0  0  0  0  0  0  0  2  0  0
   -5.5217    2.5659    7.3044 C   0  0  0  0  0  0  0  0  0  0  0  0
   -4.3296    2.1753    7.9165 C   0  0  0  0  0  0  0  0  0  0  0  0
   -3.2136    1.8307    7.1489 C   0  0  0  0  0  0  0  0  0  0  0  0
   -2.0451    1.4414    7.8231 O   0  0  0  0  0  0  0  0  0  0  0  0
   -0.8616    0.9246    7.2140 C   0  0  0  0  0  0  0  0  0  0  0  0
   -1.0569   -0.5260    6.7268 C   0  0  0  0  0  0  0  0  0  0  0  0
   -1.5245   -1.4416    7.8002 N   0  0  0  0  0  0  0  0  0  0  0  0
   -0.5012   -1.5973    8.8831 C   0  0  0  0  0  0  0  0  0  0  0  0
   -0.2674   -3.0528    9.3001 C   0  0  0  0  0  0  0  0  0  0  0  0
    0.0433   -3.8357    8.1010 N   0  0  0  0  0  0  0  0  0  0  0  0
    1.2740   -4.5769    7.9923 C   0  0  0  0  0  0  0  0  0  0  0  0
    1.2715   -5.8860    7.4802 C   0  0  0  0  0  0  0  0  0  0  0  0
    2.4677   -6.6031    7.3677 C   0  0  0  0  0  0  0  0  0  0  0  0
    3.6751   -6.0184    7.7580 C   0  0  0  0  0  0  0  0  0  0  0  0
    3.6899   -4.7143    8.2585 C   0  0  0  0  0  0  0  0  0  0  0  0
    2.4967   -3.9935    8.3729 C   0  0  0  0  0  0  0  0  0  0  0  0
   -0.8364   -3.7077    6.9336 C   0  0  0  0  0  0  0  0  0  0  0  0
   -1.9912   -2.7315    7.2184 C   0  0  0  0  0  0  0  0  0  0  0  0
   -3.3027    1.8912    5.7456 C   0  0  0  0  0  0  0  0  0  0  0  0
   -4.4973    2.2838    5.1238 C   0  0  0  0  0  0  0  0  0  0  0  0
   -4.5668    2.3437    3.7315 O   0  0  0  0  0  0  0  0  0  0  0  0
   -7.3856    2.4126    4.1677 N   0  0  0  0  0  0  0  0  0  0  0  0
   -8.5540    2.9642    3.8822 N   0  0  0  0  0  0  0  0  0  0  0  0
   -8.8262    3.9338    4.7735 C   0  0  0  0  0  0  0  0  0  0  0  0
  -10.0628    4.7758    4.7397 C   0  0  0  0  0  0  0  0  0  0  0  0
  1  3  4  0
  1 14  4  0
  1  2  1  0
  3  4  4  0
  4  5  4  0
  5  6  4  0
  5 22  1  0
  6  7  1  0
  6 14  4  0
  7  8  1  0
  8  9  4  0
  8 12  4  0
  9 10  4  0
 10 11  4  0
 11 12  4  0
 12 13  1  0
 13 14  1  0
 13 15  1  6
 15 16  4  0
 15 20  4  0
 16 17  4  0
 17 18  4  0
 17 21  1  0
 18 19  4  0
 19 20  4  0
 23 24  1  0
 24 25  4  0
 25 26  4  0
 26 27  4  0
 27 28  1  0
 28 29  1  0
 29 30  1  0
 30 31  1  0
 31 32  1  0
 32 33  1  0
 33 34  1  0
 34 35  1  0
 35 36  4  0
 36 37  4  0
 37 38  4  0
 38 39  4  0
 39 40  4  0
 34 41  1  0
 41 42  1  0
 27 43  4  0
 43 44  4  0
 44 45  1  0
 23 46  4  0
 46 47  4  0
 47 48  4  0
 48 49  1  0
 44 24  4  0
 42 31  1  0
 40 35  4  0
  2 23  4  0
  2 48  4  0
M  CHG  1  31   1
M  END
$$$$

     RDKit          3D

 43 49  0  0  0  0  0  0  0  0999 V2000
   -7.6410    4.9930    6.8080 C   0  0  0  0  0  0  0  0  0  1  0  0
   -7.7310    4.0530    5.7140 C   0  0  0  0  0  0  0  0  0  2  0  0
   -6.4520    5.6300    6.8680 N   0  0  0  0  0  0  0  0  0  0  0  0
   -6.2260    6.5240    7.8670 N   0  0  0  0  0  0  0  0  0  0  0  0
   -7.1930    6.7500    8.7820 C   0  0  0  0  0  0  0  0  0  0  0  0
   -8.4240    6.1170    8.7580 C   0  0  0  0  0  0  0  0  0  0  0  0
   -9.3950    6.3570    9.7450 N   0  0  0  0  0  0  0  0  0  0  0  0
  -10.5620    5.6840    9.7600 C   0  0  0  0  0  0  0  0  0  0  0  0
  -11.5770    5.6820   10.5960 N   0  0  0  0  0  0  0  0  0  0  0  0
  -12.4690    4.7490   10.1080 N   0  0  0  0  0  0  0  0  0  0  0  0
  -12.0160    4.1880    8.9920 N   0  0  0  0  0  0  0  0  0  0  0  0
  -10.8400    4.7900    8.7610 N   0  0  0  0  0  0  0  0  0  0  0  0
   -9.9950    4.4790    7.6090 C   0  0  0  0  0  0  0  0  0  0  0  0
   -8.6630    5.2070    7.7200 C   0  0  0  0  0  0  0  0  0  0  0  0
  -10.7490    4.8610    6.3730 C   0  0  0  0  0  0  0  0  0  0  0  0
  -11.0350    6.2020    6.1170 C   0  0  0  0  0  0  0  0  0  0  0  0
  -11.7370    6.5580    4.9650 C   0  0  0  0  0  0  0  0  0  0  0  0
  -12.1550    5.5730    4.0710 C   0  0  0  0  0  0  0  0  0  0  0  0
  -11.8700    4.2310    4.3270 C   0  0  0  0  0  0  0  0  0  0  0  0
  -11.1660    3.8760    5.4790 C   0  0  0  0  0  0  0  0  0  0  0  0
  -12.0160    7.8660    4.7150 O   0  0  0  0  0  0  0  0  0  0  0  0
   -6.8990    7.6510    9.7710 O   0  0  0  0  0  0  0  0  0  0  0  0
   -6.8591    3.0033    5.4065 C   0  0  0  0  0  0  0  0  0  0  0  0
   -7.0927    2.0384    4.4205 C   0  0  0  0  0  0  0  0  0  0  0  0
   -8.2864    2.0620    3.6824 C   0  0  0  0  0  0  0  0  0  0  0  0
   -8.5438    1.1323    2.6719 O   0  0  0  0  0  0  0  0  0  0  0  0
   -8.3197   -0.2696    2.8186 C   0  0  0  0  0  0  0  0  0  0  0  0
   -8.6826   -1.0253    1.5254 C   0  0  0  0  0  0  0  0  0  0  0  0
   -9.9116   -0.5137    0.8575 N   0  0  0  0  0  0  0  0  0  0  0  0
  -10.0570   -1.0702   -0.5112 C   0  0  0  0  0  0  0  0  0  0  0  0
  -10.5046   -2.5370   -0.5117 C   0  0  0  0  0  0  0  0  0  0  0  0
  -11.7118   -2.6628    0.3034 N   0  0  0  0  0  0  0  0  0  0  0  0
  -12.9679   -3.0422   -0.2920 C   0  0  0  0  0  0  0  0  0  0  0  0
  -14.1227   -2.2647   -0.0879 C   0  0  0  0  0  0  0  0  0  0  0  0
  -15.3266   -2.6120   -0.7065 C   0  0  0  0  0  0  0  0  0  0  0  0
  -15.3903   -3.7374   -1.5327 C   0  0  0  0  0  0  0  0  0  0  0  0
  -14.2500   -4.5203   -1.7372 C   0  0  0  0  0  0  0  0  0  0  0  0
  -13.0441   -4.1749   -1.1197 C   0  0  0  0  0  0  0  0  0  0  0  0
  -11.6265   -2.1668    1.6774 C   0  0  0  0  0  0  0  0  0  0  0  0
  -11.1497   -0.7066    1.6592 C   0  0  0  0  0  0  0  0  0  0  0  0
   -9.2420    3.0508    3.9454 C   0  0  0  0  0  0  0  0  0  0  0  0
   -9.0289    3.9983    4.9573 C   0  0  0  0  0  0  0  0  0  0  0  0
  -10.0026    4.9600    5.2269 O   0  0  0  0  0  0  0  0  0  0  0  0
  1  3  4  0
  1 14  4  0
  1  2  1  0
  3  4  4  0
  4  5  4  0
  5  6  4  0
  5 22  1  0
  6  7  1  0
  6 14  4  0
  7  8  1  0
  8  9  4  0
  8 12  4  0
  9 10  4  0
 10 11  4  0
 11 12  4  0
 12 13  1  0
 13 14  1  0
 13 15  1  6
 15 16  4  0
 15 20  4  0
 16 17  4  0
 17 18  4  0
 17 21  1  0
 18 19  4  0
 19 20  4  0
 23 24  4  0
 24 25  4  0
 25 26  1  0
 26 27  1  0
 27 28  1  0
 28 29  1  0
 29 30  1  0
 30 31  1  0
 31 32  1  0
 32 33  1  0
 33 34  4  0
 34 35  4  0
 35 36  4  0
 36 37  4  0
 37 38  4  0
 32 39  1  0
 39 40  1  0
 25 41  4  0
 41 42  4  0
 42 43  1  0
 40 29  1  0
 38 33  4  0
  2 23  4  0
  2 42  4  0
M  CHG  1  29   1
M  END
$$$$

     RDKit          3D

 43 49  0  0  0  0  0  0  0  0999 V2000
   -7.6410    4.9930    6.8080 C   0  0  0  0  0  0  0  0  0  1  0  0
   -7.7310    4.0530    5.7140 C   0  0  0  0  0  0  0  0  0  2  0  0
   -6.4520    5.6300    6.8680 N   0  0  0  0  0  0  0  0  0  0  0  0
   -6.2260    6.5240    7.8670 N   0  0  0  0  0  0  0  0  0  0  0  0
   -7.1930    6.7500    8.7820 C   0  0  0  0  0  0  0  0  0  0  0  0
   -8.4240    6.1170    8.7580 C   0  0  0  0  0  0  0  0  0  0  0  0
   -9.3950    6.3570    9.7450 N   0  0  0  0  0  0  0  0  0  0  0  0
  -10.5620    5.6840    9.7600 C   0  0  0  0  0  0  0  0  0  0  0  0
  -11.5770    5.6820   10.5960 N   0  0  0  0  0  0  0  0  0  0  0  0
  -12.4690    4.7490   10.1080 N   0  0  0  0  0  0  0  0  0  0  0  0
  -12.0160    4.1880    8.9920 N   0  0  0  0  0  0  0  0  0  0  0  0
  -10.8400    4.7900    8.7610 N   0  0  0  0  0  0  0  0  0  0  0  0
   -9.9950    4.4790    7.6090 C   0  0  0  0  0  0  0  0  0  0  0  0
   -8.6630    5.2070    7.7200 C   0  0  0  0  0  0  0  0  0  0  0  0
  -10.7490    4.8610    6.3730 C   0  0  0  0  0  0  0  0  0  0  0  0
  -11.0350    6.2020    6.1170 C   0  0  0  0  0  0  0  0  0  0  0  0
  -11.7370    6.5580    4.9650 C   0  0  0  0  0  0  0  0  0  0  0  0
  -12.1550    5.5730    4.0710 C   0  0  0  0  0  0  0  0  0  0  0  0
  -11.8700    4.2310    4.3270 C   0  0  0  0  0  0  0  0  0  0  0  0
  -11.1660    3.8760    5.4790 C   0  0  0  0  0  0  0  0  0  0  0  0
  -12.0160    7.8660    4.7150 O   0  0  0  0  0  0  0  0  0  0  0  0
   -6.8990    7.6510    9.7710 O   0  0  0  0  0  0  0  0  0  0  0  0
   -6.8093    3.1023    5.2809 C   0  0  0  0  0  0  0  0  0  0  0  0
   -7.0459    2.1472    4.2909 C   0  0  0  0  0  0  0  0  0  0  0  0
   -8.3040    2.0378    3.6920 C   0  0  0  0  0  0  0  0  0  0  0  0
   -8.4807    1.0539    2.7059 O   0  0  0  0  0  0  0  0  0  0  0  0
   -9.7194    0.7023    2.0887 C   0  0  0  0  0  0  0  0  0  0  0  0
  -10.6259   -0.1007    3.0444 C   0  0  0  0  0  0  0  0  0  0  0  0
   -9.9628   -1.3125    3.5932 N   0  0  0  0  0  0  0  0  0  0  0  0
   -9.6549   -2.3119    2.5205 C   0  0  0  0  0  0  0  0  0  0  0  0
  -10.0555   -3.7448    2.8853 C   0  0  0  0  0  0  0  0  0  0  0  0
  -11.4661   -3.7463    3.2823 N   0  0  0  0  0  0  0  0  0  0  0  0
  -12.4315   -4.5716    2.6021 C   0  0  0  0  0  0  0  0  0  0  0  0
  -13.3860   -5.2985    3.3347 C   0  0  0  0  0  0  0  0  0  0  0  0
  -14.3283   -6.0941    2.6738 C   0  0  0  0  0  0  0  0  0  0  0  0
  -14.3305   -6.1653    1.2784 C   0  0  0  0  0  0  0  0  0  0  0  0
  -13.3929   -5.4387    0.5405 C   0  0  0  0  0  0  0  0  0  0  0  0
  -12.4490   -4.6422    1.1967 C   0  0  0  0  0  0  0  0  0  0  0  0
  -11.9177   -2.7563    4.2666 C   0  0  0  0  0  0  0  0  0  0  0  0
  -10.7500   -1.8677    4.7299 C   0  0  0  0  0  0  0  0  0  0  0  0
   -9.3317    2.9115    4.0933 C   0  0  0  0  0  0  0  0  0  0  0  0
   -9.1006    3.8745    5.0869 C   0  0  0  0  0  0  0  0  0  0  0  0
  -10.1290    4.7367    5.4691 O   0  0  0  0  0  0  0  0  0  0  0  0
  1  3  4  0
  1 14  4  0
  1  2  1  0
  3  4  4  0
  4  5  4  0
  5  6  4  0
  5 22  1  0
  6  7  1  0
  6 14  4  0
  7  8  1  0
  8  9  4  0
  8 12  4  0
  9 10  4  0
 10 11  4  0
 11 12  4  0
 12 13  1  0
 13 14  1  0
 13 15  1  6
 15 16  4  0
 15 20  4  0
 16 17  4  0
 17 18  4  0
 17 21  1  0
 18 19  4  0
 19 20  4  0
 23 24  4  0
 24 25  4  0
 25 26  1  0
 26 27  1  0
 27 28  1  0
 28 29  1  0
 29 30  1  0
 30 31  1  0
 31 32  1  0
 32 33  1  0
 33 34  4  0
 34 35  4  0
 35 36  4  0
 36 37  4  0
 37 38  4  0
 32 39  1  0
 39 40  1  0
 25 41  4  0
 41 42  4  0
 42 43  1  0
 40 29  1  0
 38 33  4  0
  2 23  4  0
  2 42  4  0
M  CHG  1  29   1
M  END
$$$$

     RDKit          3D

 41 47  0  0  0  0  0  0  0  0999 V2000
   -7.6410    4.9930    6.8080 C   0  0  0  0  0  0  0  0  0  1  0  0
   -7.7310    4.0530    5.7140 C   0  0  0  0  0  0  0  0  0  2  0  0
   -6.4520    5.6300    6.8680 N   0  0  0  0  0  0  0  0  0  0  0  0
   -6.2260    6.5240    7.8670 N   0  0  0  0  0  0  0  0  0  0  0  0
   -7.1930    6.7500    8.7820 C   0  0  0  0  0  0  0  0  0  0  0  0
   -8.4240    6.1170    8.7580 C   0  0  0  0  0  0  0  0  0  0  0  0
   -9.3950    6.3570    9.7450 N   0  0  0  0  0  0  0  0  0  0  0  0
  -10.5620    5.6840    9.7600 C   0  0  0  0  0  0  0  0  0  0  0  0
  -11.5770    5.6820   10.5960 N   0  0  0  0  0  0  0  0  0  0  0  0
  -12.4690    4.7490   10.1080 N   0  0  0  0  0  0  0  0  0  0  0  0
  -12.0160    4.1880    8.9920 N   0  0  0  0  0  0  0  0  0  0  0  0
  -10.8400    4.7900    8.7610 N   0  0  0  0  0  0  0  0  0  0  0  0
   -9.9950    4.4790    7.6090 C   0  0  0  0  0  0  0  0  0  0  0  0
   -8.6630    5.2070    7.7200 C   0  0  0  0  0  0  0  0  0  0  0  0
  -10.7490    4.8610    6.3730 C   0  0  0  0  0  0  0  0  0  0  0  0
  -11.0350    6.2020    6.1170 C   0  0  0  0  0  0  0  0  0  0  0  0
  -11.7370    6.5580    4.9650 C   0  0  0  0  0  0  0  0  0  0  0  0
  -12.1550    5.5730    4.0710 C   0  0  0  0  0  0  0  0  0  0  0  0
  -11.8700    4.2310    4.3270 C   0  0  0  0  0  0  0  0  0  0  0  0
  -11.1660    3.8760    5.4790 C   0  0  0  0  0  0  0  0  0  0  0  0
  -12.0160    7.8660    4.7150 O   0  0  0  0  0  0  0  0  0  0  0  0
   -6.8990    7.6510    9.7710 O   0  0  0  0  0  0  0  0  0  0  0  0
   -6.8767    2.9656    5.4794 C   0  0  0  0  0  0  0  0  0  0  0  0
   -7.3829    2.0893    4.1320 S   0  0  0  0  0  0  0  0  0  0  0  0
   -8.7229    3.0744    3.8546 C   0  0  0  0  0  0  0  0  0  0  0  0
   -9.5969    2.9240    2.9022 N   0  0  0  0  0  0  0  0  0  0  0  0
   -9.5848    1.8532    1.9063 C   0  0  0  0  0  0  0  0  0  0  0  0
  -10.1413    0.5480    2.4927 C   0  0  0  0  0  0  0  0  0  0  0  0
  -11.5740    0.6978    2.9759 C   0  0  0  0  0  0  0  0  0  0  0  0
  -12.1229   -0.6860    2.8079 C   0  0  0  0  0  0  0  0  0  0  0  0
  -11.2193   -1.3064    1.7537 C   0  0  0  0  0  0  0  0  0  0  0  0
  -10.1148   -0.4622    1.5135 O   0  0  0  0  0  0  0  0  0  0  0  0
   -8.7832    4.0784    4.7627 N   0  0  0  0  0  0  0  0  0  0  0  0
   -9.7953    5.0571    4.7923 N   0  0  0  0  0  0  0  0  0  0  0  0
  -10.0470    5.8931    3.8263 C   0  0  0  0  0  0  0  0  0  0  0  0
   -9.2133    6.0356    2.6166 C   0  0  0  0  0  0  0  0  0  0  0  0
   -9.6323    6.5490    1.4035 C   0  0  0  0  0  0  0  0  0  0  0  0
   -8.5847    6.6055    0.5580 N   0  0  0  0  0  0  0  0  0  0  0  0
   -7.5253    6.1433    1.2035 N   0  0  0  0  0  0  0  0  0  0  0  0
   -6.1803    6.1247    0.6458 C   0  0  0  0  0  0  0  0  0  0  0  0
   -7.8583    5.8113    2.4638 C   0  0  0  0  0  0  0  0  0  0  0  0
  1  3  4  0
  1 14  4  0
  1  2  1  0
  3  4  4  0
  4  5  4  0
  5  6  4  0
  5 22  1  0
  6  7  1  0
  6 14  4  0
  7  8  1  0
  8  9  4  0
  8 12  4  0
  9 10  4  0
 10 11  4  0
 11 12  4  0
 12 13  1  0
 13 14  1  0
 13 15  1  6
 15 16  4  0
 15 20  4  0
 16 17  4  0
 17 18  4  0
 17 21  1  0
 18 19  4  0
 19 20  4  0
 23 24  4  0
 24 25  4  0
 25 26  2  3
 26 27  1  0
 27 28  1  0
 28 29  1  0
 29 30  1  0
 30 31  1  0
 31 32  1  0
 25 33  4  0
 33 34  1  0
 34 35  2  3
 35 36  1  0
 36 37  4  0
 37 38  4  0
 38 39  4  0
 39 40  1  0
 39 41  4  0
 41 36  4  0
 32 28  1  0
  2 23  4  0
  2 33  4  0
M  END
$$$$

     RDKit          3D

 42 49  0  0  0  0  0  0  0  0999 V2000
   -7.6410    4.9930    6.8080 C   0  0  0  0  0  0  0  0  0  1  0  0
   -7.7310    4.0530    5.7140 C   0  0  0  0  0  0  0  0  0  2  0  0
   -6.4520    5.6300    6.8680 N   0  0  0  0  0  0  0  0  0  0  0  0
   -6.2260    6.5240    7.8670 N   0  0  0  0  0  0  0  0  0  0  0  0
   -7.1930    6.7500    8.7820 C   0  0  0  0  0  0  0  0  0  0  0  0
   -8.4240    6.1170    8.7580 C   0  0  0  0  0  0  0  0  0  0  0  0
   -9.3950    6.3570    9.7450 N   0  0  0  0  0  0  0  0  0  0  0  0
  -10.5620    5.6840    9.7600 C   0  0  0  0  0  0  0  0  0  0  0  0
  -11.5770    5.6820   10.5960 N   0  0  0  0  0  0  0  0  0  0  0  0
  -12.4690    4.7490   10.1080 N   0  0  0  0  0  0  0  0  0  0  0  0
  -12.0160    4.1880    8.9920 N   0  0  0  0  0  0  0  0  0  0  0  0
  -10.8400    4.7900    8.7610 N   0  0  0  0  0  0  0  0  0  0  0  0
   -9.9950    4.4790    7.6090 C   0  0  0  0  0  0  0  0  0  0  0  0
   -8.6630    5.2070    7.7200 C   0  0  0  0  0  0  0  0  0  0  0  0
  -10.7490    4.8610    6.3730 C   0  0  0  0  0  0  0  0  0  0  0  0
  -11.0350    6.2020    6.1170 C   0  0  0  0  0  0  0  0  0  0  0  0
  -11.7370    6.5580    4.9650 C   0  0  0  0  0  0  0  0  0  0  0  0
  -12.1550    5.5730    4.0710 C   0  0  0  0  0  0  0  0  0  0  0  0
  -11.8700    4.2310    4.3270 C   0  0  0  0  0  0  0  0  0  0  0  0
  -11.1660    3.8760    5.4790 C   0  0  0  0  0  0  0  0  0  0  0  0
  -12.0160    7.8660    4.7150 O   0  0  0  0  0  0  0  0  0  0  0  0
   -6.8990    7.6510    9.7710 O   0  0  0  0  0  0  0  0  0  0  0  0
   -6.9023    2.9342    5.5171 C   0  0  0  0  0  0  0  0  0  0  0  0
   -7.4198    1.9773    4.2236 S   0  0  0  0  0  0  0  0  0  0  0  0
   -8.7518    2.9287    3.8725 C   0  0  0  0  0  0  0  0  0  0  0  0
   -9.6482    2.7263    2.8820 N   0  0  0  0  0  0  0  0  0  0  0  0
  -10.6630    3.6178    2.7177 C   0  0  0  0  0  0  0  0  0  0  0  0
  -10.7650    4.7208    3.5255 N   0  0  0  0  0  0  0  0  0  0  0  0
  -11.8237    5.6253    3.3112 N   0  0  0  0  0  0  0  0  0  0  0  0
  -11.6598    7.0182    3.1136 C   0  0  0  0  0  0  0  0  0  0  0  0
  -10.5689    7.5402    2.7617 O   0  0  0  0  0  0  0  0  0  0  0  0
  -12.9085    7.7782    3.3349 C   0  0  0  0  0  0  0  0  0  0  0  0
  -13.8131    6.7335    4.0232 C   0  0  0  0  0  0  0  0  0  0  0  0
  -15.2831    6.8102    3.5938 C   0  0  0  0  0  0  0  0  0  0  0  0
  -15.5100    5.5456    2.3862 S   0  0  0  0  0  0  0  0  0  0  0  0
  -16.6438    4.6314    2.7567 O   0  0  0  0  0  0  0  0  0  0  0  0
  -15.7263    6.1290    1.0182 O   0  0  0  0  0  0  0  0  0  0  0  0
  -13.9546    4.7188    2.4926 C   0  0  0  0  0  0  0  0  0  0  0  0
  -13.2042    5.3470    3.6767 C   0  0  0  0  0  0  0  0  0  0  0  0
   -9.8606    4.9318    4.5382 C   0  0  0  0  0  0  0  0  0  0  0  0
   -9.9581    5.9505    5.2743 O   0  0  0  0  0  0  0  0  0  0  0  0
   -8.8287    4.0021    4.7352 C   0  0  0  0  0  0  0  0  0  0  0  0
  1  3  4  0
  1 14  4  0
  1  2  1  0
  3  4  4  0
  4  5  4  0
  5  6  4  0
  5 22  1  0
  6  7  1  0
  6 14  4  0
  7  8  1  0
  8  9  4  0
  8 12  4  0
  9 10  4  0
 10 11  4  0
 11 12  4  0
 12 13  1  0
 13 14  1  0
 13 15  1  6
 15 16  4  0
 15 20  4  0
 16 17  4  0
 17 18  4  0
 17 21  1  0
 18 19  4  0
 19 20  4  0
 23 24  4  0
 24 25  4  0
 25 26  4  0
 26 27  4  0
 27 28  4  0
 28 29  1  0
 29 30  1  0
 30 31  2  0
 30 32  1  0
 32 33  1  0
 33 34  1  0
 34 35  1  0
 35 36  2  0
 35 37  2  0
 35 38  1  0
 38 39  1  0
 28 40  4  0
 40 41  2  0
 40 42  4  0
 42 25  4  0
 39 29  1  0
 39 33  1  0
  2 23  4  0
  2 42  4  0
M  END
$$$$

     RDKit          3D

 30 34  0  0  0  0  0  0  0  0999 V2000
   -7.6410    4.9930    6.8080 C   0  0  0  0  0  0  0  0  0  1  0  0
   -7.7310    4.0530    5.7140 C   0  0  0  0  0  0  0  0  0  2  0  0
   -6.4520    5.6300    6.8680 N   0  0  0  0  0  0  0  0  0  0  0  0
   -6.2260    6.5240    7.8670 N   0  0  0  0  0  0  0  0  0  0  0  0
   -7.1930    6.7500    8.7820 C   0  0  0  0  0  0  0  0  0  0  0  0
   -8.4240    6.1170    8.7580 C   0  0  0  0  0  0  0  0  0  0  0  0
   -9.3950    6.3570    9.7450 N   0  0  0  0  0  0  0  0  0  0  0  0
  -10.5620    5.6840    9.7600 C   0  0  0  0  0  0  0  0  0  0  0  0
  -11.5770    5.6820   10.5960 N   0  0  0  0  0  0  0  0  0  0  0  0
  -12.4690    4.7490   10.1080 N   0  0  0  0  0  0  0  0  0  0  0  0
  -12.0160    4.1880    8.9920 N   0  0  0  0  0  0  0  0  0  0  0  0
  -10.8400    4.7900    8.7610 N   0  0  0  0  0  0  0  0  0  0  0  0
   -9.9950    4.4790    7.6090 C   0  0  0  0  0  0  0  0  0  0  0  0
   -8.6630    5.2070    7.7200 C   0  0  0  0  0  0  0  0  0  0  0  0
  -10.7490    4.8610    6.3730 C   0  0  0  0  0  0  0  0  0  0  0  0
  -11.0350    6.2020    6.1170 C   0  0  0  0  0  0  0  0  0  0  0  0
  -11.7370    6.5580    4.9650 C   0  0  0  0  0  0  0  0  0  0  0  0
  -12.1550    5.5730    4.0710 C   0  0  0  0  0  0  0  0  0  0  0  0
  -11.8700    4.2310    4.3270 C   0  0  0  0  0  0  0  0  0  0  0  0
  -11.1660    3.8760    5.4790 C   0  0  0  0  0  0  0  0  0  0  0  0
  -12.0160    7.8660    4.7150 O   0  0  0  0  0  0  0  0  0  0  0  0
   -6.8990    7.6510    9.7710 O   0  0  0  0  0  0  0  0  0  0  0  0
   -6.6852    3.2549    5.2490 C   0  0  0  0  0  0  0  0  0  0  0  0
   -6.8255    2.3307    4.2117 C   0  0  0  0  0  0  0  0  0  0  0  0
   -8.0652    2.1511    3.5953 C   0  0  0  0  0  0  0  0  0  0  0  0
   -9.1813    2.8931    4.0171 C   0  0  0  0  0  0  0  0  0  0  0  0
  -10.4937    2.7394    3.3033 C   0  0  0  0  0  0  0  0  0  0  0  0
  -10.6143    3.7235    2.3375 F   0  0  0  0  0  0  0  0  0  0  0  0
   -9.0386    3.8299    5.0584 C   0  0  0  0  0  0  0  0  0  0  0  0
  -10.1031    4.5953    5.4151 F   0  0  0  0  0  0  0  0  0  0  0  0
  1  3  4  0
  1 14  4  0
  1  2  1  0
  3  4  4  0
  4  5  4  0
  5  6  4  0
  5 22  1  0
  6  7  1  0
  6 14  4  0
  7  8  1  0
  8  9  4  0
  8 12  4  0
  9 10  4  0
 10 11  4  0
 11 12  4  0
 12 13  1  0
 13 14  1  0
 13 15  1  6
 15 16  4  0
 15 20  4  0
 16 17  4  0
 17 18  4  0
 17 21  1  0
 18 19  4  0
 19 20  4  0
 23 24  4  0
 24 25  4  0
 25 26  4  0
 26 27  1  0
 27 28  1  0
 26 29  4  0
 29 30  1  0
  2 23  4  0
  2 29  4  0
M  END
$$$$

     RDKit          3D

 36 42  0  0  0  0  0  0  0  0999 V2000
   -7.6410    4.9930    6.8080 C   0  0  0  0  0  0  0  0  0  1  0  0
   -7.7310    4.0530    5.7140 C   0  0  0  0  0  0  0  0  0  2  0  0
   -6.4520    5.6300    6.8680 N   0  0  0  0  0  0  0  0  0  0  0  0
   -6.2260    6.5240    7.8670 N   0  0  0  0  0  0  0  0  0  0  0  0
   -7.1930    6.7500    8.7820 C   0  0  0  0  0  0  0  0  0  0  0  0
   -8.4240    6.1170    8.7580 C   0  0  0  0  0  0  0  0  0  0  0  0
   -9.3950    6.3570    9.7450 N   0  0  0  0  0  0  0  0  0  0  0  0
  -10.5620    5.6840    9.7600 C   0  0  0  0  0  0  0  0  0  0  0  0
  -11.5770    5.6820   10.5960 N   0  0  0  0  0  0  0  0  0  0  0  0
  -12.4690    4.7490   10.1080 N   0  0  0  0  0  0  0  0  0  0  0  0
  -12.0160    4.1880    8.9920 N   0  0  0  0  0  0  0  0  0  0  0  0
  -10.8400    4.7900    8.7610 N   0  0  0  0  0  0  0  0  0  0  0  0
   -9.9950    4.4790    7.6090 C   0  0  0  0  0  0  0  0  0  0  0  0
   -8.6630    5.2070    7.7200 C   0  0  0  0  0  0  0  0  0  0  0  0
  -10.7490    4.8610    6.3730 C   0  0  0  0  0  0  0  0  0  0  0  0
  -11.0350    6.2020    6.1170 C   0  0  0  0  0  0  0  0  0  0  0  0
  -11.7370    6.5580    4.9650 C   0  0  0  0  0  0  0  0  0  0  0  0
  -12.1550    5.5730    4.0710 C   0  0  0  0  0  0  0  0  0  0  0  0
  -11.8700    4.2310    4.3270 C   0  0  0  0  0  0  0  0  0  0  0  0
  -11.1660    3.8760    5.4790 C   0  0  0  0  0  0  0  0  0  0  0  0
  -12.0160    7.8660    4.7150 O   0  0  0  0  0  0  0  0  0  0  0  0
   -6.8990    7.6510    9.7710 O   0  0  0  0  0  0  0  0  0  0  0  0
   -6.8164    3.1027    5.3728 N   0  0  0  0  0  0  0  0  0  0  0  0
   -7.3433    2.4949    4.2968 C   0  0  0  0  0  0  0  0  0  0  0  0
   -6.7329    1.2939    3.2936 S   0  0  0  0  0  0  0  0  0  0  0  0
   -8.1247    1.3851    2.3050 C   0  0  0  0  0  0  0  0  0  0  0  0
   -8.9882    2.3848    2.7733 C   0  0  0  0  0  0  0  0  0  0  0  0
   -8.5212    2.9560    3.9128 N   0  0  0  0  0  0  0  0  0  0  0  0
   -8.8562    3.9212    4.7857 C   0  0  0  0  0  0  0  0  0  0  0  0
  -10.0195    4.8624    4.6441 C   0  0  0  0  0  0  0  0  0  0  0  0
   -9.6808    5.9386    3.7068 C   0  0  0  0  0  0  0  0  0  0  0  0
   -9.4126    6.7890    2.9686 N   0  0  0  0  0  0  0  0  0  0  0  0
  -10.3088    2.6871    2.1183 C   0  0  0  0  0  0  0  0  0  0  0  0
  -10.3837    2.0937    0.6986 C   0  0  0  0  0  0  0  0  0  0  0  0
   -9.8412    0.6548    0.6492 C   0  0  0  0  0  0  0  0  0  0  0  0
   -8.3584    0.6059    1.0491 C   0  0  0  0  0  0  0  0  0  0  0  0
  1  3  4  0
  1 14  4  0
  1  2  1  0
  3  4  4  0
  4  5  4  0
  5  6  4  0
  5 22  1  0
  6  7  1  0
  6 14  4  0
  7  8  1  0
  8  9  4  0
  8 12  4  0
  9 10  4  0
 10 11  4  0
 11 12  4  0
 12 13  1  0
 13 14  1  0
 13 15  1  6
 15 16  4  0
 15 20  4  0
 16 17  4  0
 17 18  4  0
 17 21  1  0
 18 19  4  0
 19 20  4  0
 23 24  4  0
 24 25  4  0
 25 26  4  0
 26 27  4  0
 27 28  4  0
 28 29  4  0
 29 30  1  0
 30 31  1  0
 31 32  3  0
 27 33  1  0
 33 34  1  0
 34 35  1  0
 35 36  1  0
 28 24  4  0
 36 26  1  0
  2 23  4  0
  2 29  4  0
M  END
$$$$

     RDKit          3D

 40 45  0  0  0  0  0  0  0  0999 V2000
   -7.6410    4.9930    6.8080 C   0  0  0  0  0  0  0  0  0  1  0  0
   -7.7310    4.0530    5.7140 C   0  0  0  0  0  0  0  0  0  2  0  0
   -6.4520    5.6300    6.8680 N   0  0  0  0  0  0  0  0  0  0  0  0
   -6.2260    6.5240    7.8670 N   0  0  0  0  0  0  0  0  0  0  0  0
   -7.1930    6.7500    8.7820 C   0  0  0  0  0  0  0  0  0  0  0  0
   -8.4240    6.1170    8.7580 C   0  0  0  0  0  0  0  0  0  0  0  0
   -9.3950    6.3570    9.7450 N   0  0  0  0  0  0  0  0  0  0  0  0
  -10.5620    5.6840    9.7600 C   0  0  0  0  0  0  0  0  0  0  0  0
  -11.5770    5.6820   10.5960 N   0  0  0  0  0  0  0  0  0  0  0  0
  -12.4690    4.7490   10.1080 N   0  0  0  0  0  0  0  0  0  0  0  0
  -12.0160    4.1880    8.9920 N   0  0  0  0  0  0  0  0  0  0  0  0
  -10.8400    4.7900    8.7610 N   0  0  0  0  0  0  0  0  0  0  0  0
   -9.9950    4.4790    7.6090 C   0  0  0  0  0  0  0  0  0  0  0  0
   -8.6630    5.2070    7.7200 C   0  0  0  0  0  0  0  0  0  0  0  0
  -10.7490    4.8610    6.3730 C   0  0  0  0  0  0  0  0  0  0  0  0
  -11.0350    6.2020    6.1170 C   0  0  0  0  0  0  0  0  0  0  0  0
  -11.7370    6.5580    4.9650 C   0  0  0  0  0  0  0  0  0  0  0  0
  -12.1550    5.5730    4.0710 C   0  0  0  0  0  0  0  0  0  0  0  0
  -11.8700    4.2310    4.3270 C   0  0  0  0  0  0  0  0  0  0  0  0
  -11.1660    3.8760    5.4790 C   0  0  0  0  0  0  0  0  0  0  0  0
  -12.0160    7.8660    4.7150 O   0  0  0  0  0  0  0  0  0  0  0  0
   -6.8990    7.6510    9.7710 O   0  0  0  0  0  0  0  0  0  0  0  0
   -6.7858    3.1950    5.2815 N   0  0  0  0  0  0  0  0  0  0  0  0
   -7.2584    2.4593    4.2866 N   0  0  0  0  0  0  0  0  0  0  0  0
   -8.5342    2.8395    4.0915 C   0  0  0  0  0  0  0  0  0  0  0  0
   -9.5916    2.1249    2.8274 S   0  0  0  0  0  0  0  0  0  0  0  0
   -9.1207    3.3286    1.5364 C   0  0  0  0  0  0  0  0  0  0  0  0
   -7.6853    3.1611    1.1418 C   0  0  0  0  0  0  0  0  0  0  0  0
   -6.8815    4.1177    1.3121 O   0  0  0  0  0  0  0  0  0  0  0  0
   -7.2271    1.9119    0.6038 N   0  0  0  0  0  0  0  0  0  0  0  0
   -5.8657    1.6855    0.2058 C   0  0  0  0  0  0  0  0  0  0  0  0
   -5.2456    2.5858   -0.6730 C   0  0  0  0  0  0  0  0  0  0  0  0
   -3.9528    2.3497   -1.1333 C   0  0  0  0  0  0  0  0  0  0  0  0
   -3.2697    1.2010   -0.7408 C   0  0  0  0  0  0  0  0  0  0  0  0
   -3.8690    0.2727    0.1256 C   0  0  0  0  0  0  0  0  0  0  0  0
   -3.0963   -0.9631    0.5082 C   0  0  0  0  0  0  0  0  0  0  0  0
   -5.1684    0.5301    0.6380 C   0  0  0  0  0  0  0  0  0  0  0  0
   -5.8242   -0.4315    1.6042 C   0  0  0  0  0  0  0  0  0  0  0  0
   -8.8980    3.8167    4.9453 N   0  0  0  0  0  0  0  0  0  0  0  0
  -10.1885    4.4996    5.0218 C   0  0  0  0  0  0  0  0  0  0  0  0
  1  3  4  0
  1 14  4  0
  1  2  1  0
  3  4  4  0
  4  5  4  0
  5  6  4  0
  5 22  1  0
  6  7  1  0
  6 14  4  0
  7  8  1  0
  8  9  4  0
  8 12  4  0
  9 10  4  0
 10 11  4  0
 11 12  4  0
 12 13  1  0
 13 14  1  0
 13 15  1  6
 15 16  4  0
 15 20  4  0
 16 17  4  0
 17 18  4  0
 17 21  1  0
 18 19  4  0
 19 20  4  0
 23 24  4  0
 24 25  4  0
 25 26  1  0
 26 27  1  0
 27 28  1  0
 28 29  2  0
 28 30  1  0
 30 31  1  0
 31 32  4  0
 32 33  4  0
 33 34  4  0
 34 35  4  0
 35 36  1  0
 35 37  4  0
 37 38  1  0
 25 39  4  0
 39 40  1  0
 37 31  4  0
  2 23  4  0
  2 39  4  0
M  END
$$$$

     RDKit          3D

 40 45  0  0  0  0  0  0  0  0999 V2000
   -7.6410    4.9930    6.8080 C   0  0  0  0  0  0  0  0  0  1  0  0
   -7.7310    4.0530    5.7140 C   0  0  0  0  0  0  0  0  0  2  0  0
   -6.4520    5.6300    6.8680 N   0  0  0  0  0  0  0  0  0  0  0  0
   -6.2260    6.5240    7.8670 N   0  0  0  0  0  0  0  0  0  0  0  0
   -7.1930    6.7500    8.7820 C   0  0  0  0  0  0  0  0  0  0  0  0
   -8.4240    6.1170    8.7580 C   0  0  0  0  0  0  0  0  0  0  0  0
   -9.3950    6.3570    9.7450 N   0  0  0  0  0  0  0  0  0  0  0  0
  -10.5620    5.6840    9.7600 C   0  0  0  0  0  0  0  0  0  0  0  0
  -11.5770    5.6820   10.5960 N   0  0  0  0  0  0  0  0  0  0  0  0
  -12.4690    4.7490   10.1080 N   0  0  0  0  0  0  0  0  0  0  0  0
  -12.0160    4.1880    8.9920 N   0  0  0  0  0  0  0  0  0  0  0  0
  -10.8400    4.7900    8.7610 N   0  0  0  0  0  0  0  0  0  0  0  0
   -9.9950    4.4790    7.6090 C   0  0  0  0  0  0  0  0  0  0  0  0
   -8.6630    5.2070    7.7200 C   0  0  0  0  0  0  0  0  0  0  0  0
  -10.7490    4.8610    6.3730 C   0  0  0  0  0  0  0  0  0  0  0  0
  -11.0350    6.2020    6.1170 C   0  0  0  0  0  0  0  0  0  0  0  0
  -11.7370    6.5580    4.9650 C   0  0  0  0  0  0  0  0  0  0  0  0
  -12.1550    5.5730    4.0710 C   0  0  0  0  0  0  0  0  0  0  0  0
  -11.8700    4.2310    4.3270 C   0  0  0  0  0  0  0  0  0  0  0  0
  -11.1660    3.8760    5.4790 C   0  0  0  0  0  0  0  0  0  0  0  0
  -12.0160    7.8660    4.7150 O   0  0  0  0  0  0  0  0  0  0  0  0
   -6.8990    7.6510    9.7710 O   0  0  0  0  0  0  0  0  0  0  0  0
   -6.7867    3.1966    5.2762 N   0  0  0  0  0  0  0  0  0  0  0  0
   -7.2670    2.4506    4.2923 N   0  0  0  0  0  0  0  0  0  0  0  0
   -8.5488    2.8180    4.1139 C   0  0  0  0  0  0  0  0  0  0  0  0
   -9.6250    2.0746    2.8829 S   0  0  0  0  0  0  0  0  0  0  0  0
  -10.1038    0.6636    3.9386 C   0  0  0  0  0  0  0  0  0  0  0  0
  -11.0345    1.0984    5.0366 C   0  0  0  0  0  0  0  0  0  0  0  0
  -10.6347    1.0476    6.2304 O   0  0  0  0  0  0  0  0  0  0  0  0
  -12.3549    1.5924    4.7634 N   0  0  0  0  0  0  0  0  0  0  0  0
  -12.9714    1.5134    3.4718 C   0  0  0  0  0  0  0  0  0  0  0  0
  -13.1549    2.6960    2.7465 C   0  0  0  0  0  0  0  0  0  0  0  0
  -13.7231    2.6649    1.4757 C   0  0  0  0  0  0  0  0  0  0  0  0
  -14.1198    1.4520    0.9162 C   0  0  0  0  0  0  0  0  0  0  0  0
  -13.9670    0.2515    1.6293 C   0  0  0  0  0  0  0  0  0  0  0  0
  -14.4320   -1.0348    0.9964 C   0  0  0  0  0  0  0  0  0  0  0  0
  -13.4233    0.2796    2.9398 C   0  0  0  0  0  0  0  0  0  0  0  0
  -13.3291   -0.9921    3.7522 C   0  0  0  0  0  0  0  0  0  0  0  0
   -8.9054    3.8047    4.9597 N   0  0  0  0  0  0  0  0  0  0  0  0
  -10.1825    4.5144    5.0143 C   0  0  0  0  0  0  0  0  0  0  0  0
  1  3  4  0
  1 14  4  0
  1  2  1  0
  3  4  4  0
  4  5  4  0
  5  6  4  0
  5 22  1  0
  6  7  1  0
  6 14  4  0
  7  8  1  0
  8  9  4  0
  8 12  4  0
  9 10  4  0
 10 11  4  0
 11 12  4  0
 12 13  1  0
 13 14  1  0
 13 15  1  6
 15 16  4  0
 15 20  4  0
 16 17  4  0
 17 18  4  0
 17 21  1  0
 18 19  4  0
 19 20  4  0
 23 24  4  0
 24 25  4  0
 25 26  1  0
 26 27  1  0
 27 28  1  0
 28 29  2  0
 28 30  1  0
 30 31  1  0
 31 32  4  0
 32 33  4  0
 33 34  4  0
 34 35  4  0
 35 36  1  0
 35 37  4  0
 37 38  1  0
 25 39  4  0
 39 40  1  0
 37 31  4  0
  2 23  4  0
  2 39  4  0
M  END
$$$$

     RDKit          3D

 40 45  0  0  0  0  0  0  0  0999 V2000
   -7.6410    4.9930    6.8080 C   0  0  0  0  0  0  0  0  0  1  0  0
   -7.7310    4.0530    5.7140 C   0  0  0  0  0  0  0  0  0  2  0  0
   -6.4520    5.6300    6.8680 N   0  0  0  0  0  0  0  0  0  0  0  0
   -6.2260    6.5240    7.8670 N   0  0  0  0  0  0  0  0  0  0  0  0
   -7.1930    6.7500    8.7820 C   0  0  0  0  0  0  0  0  0  0  0  0
   -8.4240    6.1170    8.7580 C   0  0  0  0  0  0  0  0  0  0  0  0
   -9.3950    6.3570    9.7450 N   0  0  0  0  0  0  0  0  0  0  0  0
  -10.5620    5.6840    9.7600 C   0  0  0  0  0  0  0  0  0  0  0  0
  -11.5770    5.6820   10.5960 N   0  0  0  0  0  0  0  0  0  0  0  0
  -12.4690    4.7490   10.1080 N   0  0  0  0  0  0  0  0  0  0  0  0
  -12.0160    4.1880    8.9920 N   0  0  0  0  0  0  0  0  0  0  0  0
  -10.8400    4.7900    8.7610 N   0  0  0  0  0  0  0  0  0  0  0  0
   -9.9950    4.4790    7.6090 C   0  0  0  0  0  0  0  0  0  0  0  0
   -8.6630    5.2070    7.7200 C   0  0  0  0  0  0  0  0  0  0  0  0
  -10.7490    4.8610    6.3730 C   0  0  0  0  0  0  0  0  0  0  0  0
  -11.0350    6.2020    6.1170 C   0  0  0  0  0  0  0  0  0  0  0  0
  -11.7370    6.5580    4.9650 C   0  0  0  0  0  0  0  0  0  0  0  0
  -12.1550    5.5730    4.0710 C   0  0  0  0  0  0  0  0  0  0  0  0
  -11.8700    4.2310    4.3270 C   0  0  0  0  0  0  0  0  0  0  0  0
  -11.1660    3.8760    5.4790 C   0  0  0  0  0  0  0  0  0  0  0  0
  -12.0160    7.8660    4.7150 O   0  0  0  0  0  0  0  0  0  0  0  0
   -6.8990    7.6510    9.7710 O   0  0  0  0  0  0  0  0  0  0  0  0
   -6.8512    3.0801    5.3911 N   0  0  0  0  0  0  0  0  0  0  0  0
   -7.3051    2.3875    4.3565 N   0  0  0  0  0  0  0  0  0  0  0  0
   -8.5045    2.9065    4.0351 C   0  0  0  0  0  0  0  0  0  0  0  0
   -9.4930    2.3415    2.6472 S   0  0  0  0  0  0  0  0  0  0  0  0
   -8.6814    3.4376    1.4349 C   0  0  0  0  0  0  0  0  0  0  0  0
   -9.6069    3.6995    0.2821 C   0  0  0  0  0  0  0  0  0  0  0  0
  -10.0861    4.8566    0.1382 O   0  0  0  0  0  0  0  0  0  0  0  0
   -9.9676    2.6765   -0.6584 N   0  0  0  0  0  0  0  0  0  0  0  0
   -9.4388    1.3441   -0.6155 C   0  0  0  0  0  0  0  0  0  0  0  0
  -10.2506    0.3202   -0.1138 C   0  0  0  0  0  0  0  0  0  0  0  0
   -9.7885   -0.9922   -0.0723 C   0  0  0  0  0  0  0  0  0  0  0  0
   -8.5085   -1.3002   -0.5334 C   0  0  0  0  0  0  0  0  0  0  0  0
   -7.6790   -0.2953   -1.0612 C   0  0  0  0  0  0  0  0  0  0  0  0
   -6.3204   -0.6853   -1.5897 C   0  0  0  0  0  0  0  0  0  0  0  0
   -8.1560    1.0401   -1.1365 C   0  0  0  0  0  0  0  0  0  0  0  0
   -7.2955    2.1287   -1.7390 C   0  0  0  0  0  0  0  0  0  0  0  0
   -8.8478    3.9178    4.8570 N   0  0  0  0  0  0  0  0  0  0  0  0
   -9.9490    4.8610    4.6627 C   0  0  0  0  0  0  0  0  0  0  0  0
  1  3  4  0
  1 14  4  0
  1  2  1  0
  3  4  4  0
  4  5  4  0
  5  6  4  0
  5 22  1  0
  6  7  1  0
  6 14  4  0
  7  8  1  0
  8  9  4  0
  8 12  4  0
  9 10  4  0
 10 11  4  0
 11 12  4  0
 12 13  1  0
 13 14  1  0
 13 15  1  6
 15 16  4  0
 15 20  4  0
 16 17  4  0
 17 18  4  0
 17 21  1  0
 18 19  4  0
 19 20  4  0
 23 24  4  0
 24 25  4  0
 25 26  1  0
 26 27  1  0
 27 28  1  0
 28 29  2  0
 28 30  1  0
 30 31  1  0
 31 32  4  0
 32 33  4  0
 33 34  4  0
 34 35  4  0
 35 36  1  0
 35 37  4  0
 37 38  1  0
 25 39  4  0
 39 40  1  0
 37 31  4  0
  2 23  4  0
  2 39  4  0
M  END
$$$$

     RDKit          3D

 40 45  0  0  0  0  0  0  0  0999 V2000
   -7.6410    4.9930    6.8080 C   0  0  0  0  0  0  0  0  0  1  0  0
   -7.7310    4.0530    5.7140 C   0  0  0  0  0  0  0  0  0  2  0  0
   -6.4520    5.6300    6.8680 N   0  0  0  0  0  0  0  0  0  0  0  0
   -6.2260    6.5240    7.8670 N   0  0  0  0  0  0  0  0  0  0  0  0
   -7.1930    6.7500    8.7820 C   0  0  0  0  0  0  0  0  0  0  0  0
   -8.4240    6.1170    8.7580 C   0  0  0  0  0  0  0  0  0  0  0  0
   -9.3950    6.3570    9.7450 N   0  0  0  0  0  0  0  0  0  0  0  0
  -10.5620    5.6840    9.7600 C   0  0  0  0  0  0  0  0  0  0  0  0
  -11.5770    5.6820   10.5960 N   0  0  0  0  0  0  0  0  0  0  0  0
  -12.4690    4.7490   10.1080 N   0  0  0  0  0  0  0  0  0  0  0  0
  -12.0160    4.1880    8.9920 N   0  0  0  0  0  0  0  0  0  0  0  0
  -10.8400    4.7900    8.7610 N   0  0  0  0  0  0  0  0  0  0  0  0
   -9.9950    4.4790    7.6090 C   0  0  0  0  0  0  0  0  0  0  0  0
   -8.6630    5.2070    7.7200 C   0  0  0  0  0  0  0  0  0  0  0  0
  -10.7490    4.8610    6.3730 C   0  0  0  0  0  0  0  0  0  0  0  0
  -11.0350    6.2020    6.1170 C   0  0  0  0  0  0  0  0  0  0  0  0
  -11.7370    6.5580    4.9650 C   0  0  0  0  0  0  0  0  0  0  0  0
  -12.1550    5.5730    4.0710 C   0  0  0  0  0  0  0  0  0  0  0  0
  -11.8700    4.2310    4.3270 C   0  0  0  0  0  0  0  0  0  0  0  0
  -11.1660    3.8760    5.4790 C   0  0  0  0  0  0  0  0  0  0  0  0
  -12.0160    7.8660    4.7150 O   0  0  0  0  0  0  0  0  0  0  0  0
   -6.8990    7.6510    9.7710 O   0  0  0  0  0  0  0  0  0  0  0  0
   -6.8483    3.0833    5.3798 N   0  0  0  0  0  0  0  0  0  0  0  0
   -7.3112    2.3897    4.3468 N   0  0  0  0  0  0  0  0  0  0  0  0
   -8.5158    2.9052    4.0359 C   0  0  0  0  0  0  0  0  0  0  0  0
   -9.5218    2.3321    2.6675 S   0  0  0  0  0  0  0  0  0  0  0  0
   -8.7803    3.5011    1.4830 C   0  0  0  0  0  0  0  0  0  0  0  0
   -9.3885    3.3016    0.1318 C   0  0  0  0  0  0  0  0  0  0  0  0
  -10.0920    4.2172   -0.3754 O   0  0  0  0  0  0  0  0  0  0  0  0
   -9.1715    2.0758   -0.5806 N   0  0  0  0  0  0  0  0  0  0  0  0
   -9.8057    1.8089   -1.8368 C   0  0  0  0  0  0  0  0  0  0  0  0
  -10.8652    0.8923   -1.8764 C   0  0  0  0  0  0  0  0  0  0  0  0
  -11.5023    0.5993   -3.0835 C   0  0  0  0  0  0  0  0  0  0  0  0
  -11.0758    1.2080   -4.2642 C   0  0  0  0  0  0  0  0  0  0  0  0
  -10.0070    2.1069   -4.2425 C   0  0  0  0  0  0  0  0  0  0  0  0
   -9.3626    2.4230   -3.0331 C   0  0  0  0  0  0  0  0  0  0  0  0
   -8.1489    3.3216   -3.0632 C   0  0  0  0  0  0  0  0  0  0  0  0
   -6.8692    2.4977   -3.1621 C   0  0  0  0  0  0  0  0  0  0  0  0
   -8.8364    3.9173    4.8583 N   0  0  0  0  0  0  0  0  0  0  0  0
   -9.9301    4.7914    4.7435 N   0  0  0  0  0  0  0  0  0  0  0  0
  1  3  4  0
  1 14  4  0
  1  2  1  0
  3  4  4  0
  4  5  4  0
  5  6  4  0
  5 22  1  0
  6  7  1  0
  6 14  4  0
  7  8  1  0
  8  9  4  0
  8 12  4  0
  9 10  4  0
 10 11  4  0
 11 12  4  0
 12 13  1  0
 13 14  1  0
 13 15  1  6
 15 16  4  0
 15 20  4  0
 16 17  4  0
 17 18  4  0
 17 21  1  0
 18 19  4  0
 19 20  4  0
 23 24  4  0
 24 25  4  0
 25 26  1  0
 26 27  1  0
 27 28  1  0
 28 29  2  0
 28 30  1  0
 30 31  1  0
 31 32  4  0
 32 33  4  0
 33 34  4  0
 34 35  4  0
 35 36  4  0
 36 37  1  0
 37 38  1  0
 25 39  4  0
 39 40  1  0
 36 31  4  0
  2 23  4  0
  2 39  4  0
M  END
$$$$

     RDKit          3D

 40 45  0  0  0  0  0  0  0  0999 V2000
   -7.6410    4.9930    6.8080 C   0  0  0  0  0  0  0  0  0  1  0  0
   -7.7310    4.0530    5.7140 C   0  0  0  0  0  0  0  0  0  2  0  0
   -6.4520    5.6300    6.8680 N   0  0  0  0  0  0  0  0  0  0  0  0
   -6.2260    6.5240    7.8670 N   0  0  0  0  0  0  0  0  0  0  0  0
   -7.1930    6.7500    8.7820 C   0  0  0  0  0  0  0  0  0  0  0  0
   -8.4240    6.1170    8.7580 C   0  0  0  0  0  0  0  0  0  0  0  0
   -9.3950    6.3570    9.7450 N   0  0  0  0  0  0  0  0  0  0  0  0
  -10.5620    5.6840    9.7600 C   0  0  0  0  0  0  0  0  0  0  0  0
  -11.5770    5.6820   10.5960 N   0  0  0  0  0  0  0  0  0  0  0  0
  -12.4690    4.7490   10.1080 N   0  0  0  0  0  0  0  0  0  0  0  0
  -12.0160    4.1880    8.9920 N   0  0  0  0  0  0  0  0  0  0  0  0
  -10.8400    4.7900    8.7610 N   0  0  0  0  0  0  0  0  0  0  0  0
   -9.9950    4.4790    7.6090 C   0  0  0  0  0  0  0  0  0  0  0  0
   -8.6630    5.2070    7.7200 C   0  0  0  0  0  0  0  0  0  0  0  0
  -10.7490    4.8610    6.3730 C   0  0  0  0  0  0  0  0  0  0  0  0
  -11.0350    6.2020    6.1170 C   0  0  0  0  0  0  0  0  0  0  0  0
  -11.7370    6.5580    4.9650 C   0  0  0  0  0  0  0  0  0  0  0  0
  -12.1550    5.5730    4.0710 C   0  0  0  0  0  0  0  0  0  0  0  0
  -11.8700    4.2310    4.3270 C   0  0  0  0  0  0  0  0  0  0  0  0
  -11.1660    3.8760    5.4790 C   0  0  0  0  0  0  0  0  0  0  0  0
  -12.0160    7.8660    4.7150 O   0  0  0  0  0  0  0  0  0  0  0  0
   -6.8990    7.6510    9.7710 O   0  0  0  0  0  0  0  0  0  0  0  0
   -6.8702    3.0538    5.4087 N   0  0  0  0  0  0  0  0  0  0  0  0
   -7.3280    2.3716    4.3660 N   0  0  0  0  0  0  0  0  0  0  0  0
   -8.5067    2.9245    4.0219 C   0  0  0  0  0  0  0  0  0  0  0  0
   -9.4995    2.3725    2.6360 S   0  0  0  0  0  0  0  0  0  0  0  0
  -10.5321    1.2735    3.6690 C   0  0  0  0  0  0  0  0  0  0  0  0
  -11.5011    0.4706    2.8510 C   0  0  0  0  0  0  0  0  0  0  0  0
  -11.4583    0.5067    1.5908 O   0  0  0  0  0  0  0  0  0  0  0  0
  -12.4551   -0.3670    3.5210 N   0  0  0  0  0  0  0  0  0  0  0  0
  -13.4163   -1.1827    2.8263 C   0  0  0  0  0  0  0  0  0  0  0  0
  -14.1714   -0.6351    1.7726 C   0  0  0  0  0  0  0  0  0  0  0  0
  -15.1147   -1.4108    1.0963 C   0  0  0  0  0  0  0  0  0  0  0  0
  -15.3295   -2.7363    1.4728 C   0  0  0  0  0  0  0  0  0  0  0  0
  -14.6030   -3.2906    2.5278 C   0  0  0  0  0  0  0  0  0  0  0  0
  -13.6377   -2.5289    3.2106 C   0  0  0  0  0  0  0  0  0  0  0  0
  -12.8783   -3.1698    4.3487 C   0  0  0  0  0  0  0  0  0  0  0  0
  -13.6467   -3.0249    5.6595 C   0  0  0  0  0  0  0  0  0  0  0  0
   -8.8146    3.9506    4.8308 N   0  0  0  0  0  0  0  0  0  0  0  0
   -9.8800    4.8557    4.6926 N   0  0  0  0  0  0  0  0  0  0  0  0
  1  3  4  0
  1 14  4  0
  1  2  1  0
  3  4  4  0
  4  5  4  0
  5  6  4  0
  5 22  1  0
  6  7  1  0
  6 14  4  0
  7  8  1  0
  8  9  4  0
  8 12  4  0
  9 10  4  0
 10 11  4  0
 11 12  4  0
 12 13  1  0
 13 14  1  0
 13 15  1  6
 15 16  4  0
 15 20  4  0
 16 17  4  0
 17 18  4  0
 17 21  1  0
 18 19  4  0
 19 20  4  0
 23 24  4  0
 24 25  4  0
 25 26  1  0
 26 27  1  0
 27 28  1  0
 28 29  2  0
 28 30  1  0
 30 31  1  0
 31 32  4  0
 32 33  4  0
 33 34  4  0
 34 35  4  0
 35 36  4  0
 36 37  1  0
 37 38  1  0
 25 39  4  0
 39 40  1  0
 36 31  4  0
  2 23  4  0
  2 39  4  0
M  END
$$$$

     RDKit          3D

 40 45  0  0  0  0  0  0  0  0999 V2000
   -7.6410    4.9930    6.8080 C   0  0  0  0  0  0  0  0  0  1  0  0
   -7.7310    4.0530    5.7140 C   0  0  0  0  0  0  0  0  0  2  0  0
   -6.4520    5.6300    6.8680 N   0  0  0  0  0  0  0  0  0  0  0  0
   -6.2260    6.5240    7.8670 N   0  0  0  0  0  0  0  0  0  0  0  0
   -7.1930    6.7500    8.7820 C   0  0  0  0  0  0  0  0  0  0  0  0
   -8.4240    6.1170    8.7580 C   0  0  0  0  0  0  0  0  0  0  0  0
   -9.3950    6.3570    9.7450 N   0  0  0  0  0  0  0  0  0  0  0  0
  -10.5620    5.6840    9.7600 C   0  0  0  0  0  0  0  0  0  0  0  0
  -11.5770    5.6820   10.5960 N   0  0  0  0  0  0  0  0  0  0  0  0
  -12.4690    4.7490   10.1080 N   0  0  0  0  0  0  0  0  0  0  0  0
  -12.0160    4.1880    8.9920 N   0  0  0  0  0  0  0  0  0  0  0  0
  -10.8400    4.7900    8.7610 N   0  0  0  0  0  0  0  0  0  0  0  0
   -9.9950    4.4790    7.6090 C   0  0  0  0  0  0  0  0  0  0  0  0
   -8.6630    5.2070    7.7200 C   0  0  0  0  0  0  0  0  0  0  0  0
  -10.7490    4.8610    6.3730 C   0  0  0  0  0  0  0  0  0  0  0  0
  -11.0350    6.2020    6.1170 C   0  0  0  0  0  0  0  0  0  0  0  0
  -11.7370    6.5580    4.9650 C   0  0  0  0  0  0  0  0  0  0  0  0
  -12.1550    5.5730    4.0710 C   0  0  0  0  0  0  0  0  0  0  0  0
  -11.8700    4.2310    4.3270 C   0  0  0  0  0  0  0  0  0  0  0  0
  -11.1660    3.8760    5.4790 C   0  0  0  0  0  0  0  0  0  0  0  0
  -12.0160    7.8660    4.7150 O   0  0  0  0  0  0  0  0  0  0  0  0
   -6.8990    7.6510    9.7710 O   0  0  0  0  0  0  0  0  0  0  0  0
   -6.8862    3.0341    5.4220 N   0  0  0  0  0  0  0  0  0  0  0  0
   -7.3507    2.3495    4.3833 N   0  0  0  0  0  0  0  0  0  0  0  0
   -8.5170    2.9215    4.0257 C   0  0  0  0  0  0  0  0  0  0  0  0
   -9.5187    2.3722    2.6454 S   0  0  0  0  0  0  0  0  0  0  0  0
   -8.6464    3.4234    1.4389 C   0  0  0  0  0  0  0  0  0  0  0  0
   -9.3668    3.3842    0.1283 C   0  0  0  0  0  0  0  0  0  0  0  0
   -9.8588    4.4466   -0.3398 O   0  0  0  0  0  0  0  0  0  0  0  0
   -9.4809    2.1463   -0.5928 N   0  0  0  0  0  0  0  0  0  0  0  0
  -10.3144    1.9831   -1.7543 C   0  0  0  0  0  0  0  0  0  0  0  0
  -11.6124    2.5280   -1.7632 C   0  0  0  0  0  0  0  0  0  0  0  0
  -12.4605    2.3307   -2.8514 C   0  0  0  0  0  0  0  0  0  0  0  0
  -12.0336    1.5727   -3.9386 C   0  0  0  0  0  0  0  0  0  0  0  0
  -10.7546    1.0113   -3.9444 C   0  0  0  0  0  0  0  0  0  0  0  0
   -9.8660    1.2257   -2.8686 C   0  0  0  0  0  0  0  0  0  0  0  0
   -8.4769    0.6034   -2.8606 C   0  0  0  0  0  0  0  0  0  0  0  0
   -7.8665    0.3764   -4.2471 C   0  0  0  0  0  0  0  0  0  0  0  0
   -8.8118    3.9604    4.8245 N   0  0  0  0  0  0  0  0  0  0  0  0
   -9.8694    4.8767    4.6797 N   0  0  0  0  0  0  0  0  0  0  0  0
  1  3  4  0
  1 14  4  0
  1  2  1  0
  3  4  4  0
  4  5  4  0
  5  6  4  0
  5 22  1  0
  6  7  1  0
  6 14  4  0
  7  8  1  0
  8  9  4  0
  8 12  4  0
  9 10  4  0
 10 11  4  0
 11 12  4  0
 12 13  1  0
 13 14  1  0
 13 15  1  6
 15 16  4  0
 15 20  4  0
 16 17  4  0
 17 18  4  0
 17 21  1  0
 18 19  4  0
 19 20  4  0
 23 24  4  0
 24 25  4  0
 25 26  1  0
 26 27  1  0
 27 28  1  0
 28 29  2  0
 28 30  1  0
 30 31  1  0
 31 32  4  0
 32 33  4  0
 33 34  4  0
 34 35  4  0
 35 36  4  0
 36 37  1  0
 37 38  1  0
 25 39  4  0
 39 40  1  0
 36 31  4  0
  2 23  4  0
  2 39  4  0
M  END
$$$$

     RDKit          3D

 29 33  0  0  0  0  0  0  0  0999 V2000
   -7.6410    4.9930    6.8080 C   0  0  0  0  0  0  0  0  0  1  0  0
   -7.7310    4.0530    5.7140 C   0  0  0  0  0  0  0  0  0  2  0  0
   -6.4520    5.6300    6.8680 N   0  0  0  0  0  0  0  0  0  0  0  0
   -6.2260    6.5240    7.8670 N   0  0  0  0  0  0  0  0  0  0  0  0
   -7.1930    6.7500    8.7820 C   0  0  0  0  0  0  0  0  0  0  0  0
   -8.4240    6.1170    8.7580 C   0  0  0  0  0  0  0  0  0  0  0  0
   -9.3950    6.3570    9.7450 N   0  0  0  0  0  0  0  0  0  0  0  0
  -10.5620    5.6840    9.7600 C   0  0  0  0  0  0  0  0  0  0  0  0
  -11.5770    5.6820   10.5960 N   0  0  0  0  0  0  0  0  0  0  0  0
  -12.4690    4.7490   10.1080 N   0  0  0  0  0  0  0  0  0  0  0  0
  -12.0160    4.1880    8.9920 N   0  0  0  0  0  0  0  0  0  0  0  0
  -10.8400    4.7900    8.7610 N   0  0  0  0  0  0  0  0  0  0  0  0
   -9.9950    4.4790    7.6090 C   0  0  0  0  0  0  0  0  0  0  0  0
   -8.6630    5.2070    7.7200 C   0  0  0  0  0  0  0  0  0  0  0  0
  -10.7490    4.8610    6.3730 C   0  0  0  0  0  0  0  0  0  0  0  0
  -11.0350    6.2020    6.1170 C   0  0  0  0  0  0  0  0  0  0  0  0
  -11.7370    6.5580    4.9650 C   0  0  0  0  0  0  0  0  0  0  0  0
  -12.1550    5.5730    4.0710 C   0  0  0  0  0  0  0  0  0  0  0  0
  -11.8700    4.2310    4.3270 C   0  0  0  0  0  0  0  0  0  0  0  0
  -11.1660    3.8760    5.4790 C   0  0  0  0  0  0  0  0  0  0  0  0
  -12.0160    7.8660    4.7150 O   0  0  0  0  0  0  0  0  0  0  0  0
   -6.8990    7.6510    9.7710 O   0  0  0  0  0  0  0  0  0  0  0  0
   -6.9702    2.9232    5.5633 N   0  0  0  0  0  0  0  0  0  0  0  0
   -7.2837    2.1604    4.4941 C   0  0  0  0  0  0  0  0  0  0  0  0
   -6.5051    0.9578    4.0851 C   0  0  0  0  0  0  0  0  0  0  0  0
   -8.5710    2.8070    3.6290 S   0  0  0  0  0  0  0  0  0  0  0  0
   -8.7755    4.0962    4.6917 C   0  0  0  0  0  0  0  0  0  0  0  0
   -9.7365    5.2237    4.4770 C   0  0  0  0  0  0  0  0  0  0  0  0
   -8.8690    6.6523    3.8629 Cl  0  0  0  0  0  0  0  0  0  0  0  0
  1  3  4  0
  1 14  4  0
  1  2  1  0
  3  4  4  0
  4  5  4  0
  5  6  4  0
  5 22  1  0
  6  7  1  0
  6 14  4  0
  7  8  1  0
  8  9  4  0
  8 12  4  0
  9 10  4  0
 10 11  4  0
 11 12  4  0
 12 13  1  0
 13 14  1  0
 13 15  1  6
 15 16  4  0
 15 20  4  0
 16 17  4  0
 17 18  4  0
 17 21  1  0
 18 19  4  0
 19 20  4  0
 23 24  4  0
 24 25  1  0
 24 26  4  0
 26 27  4  0
 27 28  1  0
 28 29  1  0
  2 23  4  0
  2 27  4  0
M  END
$$$$

     RDKit          3D

 48 54  0  0  0  0  0  0  0  0999 V2000
   -7.6410    4.9930    6.8080 C   0  0  0  0  0  0  0  0  0  1  0  0
   -7.7310    4.0530    5.7140 C   0  0  0  0  0  0  0  0  0  2  0  0
   -6.4520    5.6300    6.8680 N   0  0  0  0  0  0  0  0  0  0  0  0
   -6.2260    6.5240    7.8670 N   0  0  0  0  0  0  0  0  0  0  0  0
   -7.1930    6.7500    8.7820 C   0  0  0  0  0  0  0  0  0  0  0  0
   -8.4240    6.1170    8.7580 C   0  0  0  0  0  0  0  0  0  0  0  0
   -9.3950    6.3570    9.7450 N   0  0  0  0  0  0  0  0  0  0  0  0
  -10.5620    5.6840    9.7600 C   0  0  0  0  0  0  0  0  0  0  0  0
  -11.5770    5.6820   10.5960 N   0  0  0  0  0  0  0  0  0  0  0  0
  -12.4690    4.7490   10.1080 N   0  0  0  0  0  0  0  0  0  0  0  0
  -12.0160    4.1880    8.9920 N   0  0  0  0  0  0  0  0  0  0  0  0
  -10.8400    4.7900    8.7610 N   0  0  0  0  0  0  0  0  0  0  0  0
   -9.9950    4.4790    7.6090 C   0  0  0  0  0  0  0  0  0  0  0  0
   -8.6630    5.2070    7.7200 C   0  0  0  0  0  0  0  0  0  0  0  0
  -10.7490    4.8610    6.3730 C   0  0  0  0  0  0  0  0  0  0  0  0
  -11.0350    6.2020    6.1170 C   0  0  0  0  0  0  0  0  0  0  0  0
  -11.7370    6.5580    4.9650 C   0  0  0  0  0  0  0  0  0  0  0  0
  -12.1550    5.5730    4.0710 C   0  0  0  0  0  0  0  0  0  0  0  0
  -11.8700    4.2310    4.3270 C   0  0  0  0  0  0  0  0  0  0  0  0
  -11.1660    3.8760    5.4790 C   0  0  0  0  0  0  0  0  0  0  0  0
  -12.0160    7.8660    4.7150 O   0  0  0  0  0  0  0  0  0  0  0  0
   -6.8990    7.6510    9.7710 O   0  0  0  0  0  0  0  0  0  0  0  0
   -6.7908    3.2004    5.2593 N   0  0  0  0  0  0  0  0  0  0  0  0
   -7.2894    2.4366    4.2953 N   0  0  0  0  0  0  0  0  0  0  0  0
   -8.5806    2.7879    4.1469 C   0  0  0  0  0  0  0  0  0  0  0  0
   -9.6915    2.0386    2.9569 S   0  0  0  0  0  0  0  0  0  0  0  0
  -10.1345    0.6480    4.0518 C   0  0  0  0  0  0  0  0  0  0  0  0
  -11.4720    0.0991    3.6469 C   0  0  0  0  0  0  0  0  0  0  0  0
  -11.5344   -0.6041    2.6015 O   0  0  0  0  0  0  0  0  0  0  0  0
  -12.6701    0.3295    4.4219 N   0  0  0  0  0  0  0  0  0  0  0  0
  -13.7299   -0.6376    4.3235 C   0  0  0  0  0  0  0  0  0  0  0  0
  -13.7098   -1.7881    5.1219 C   0  0  0  0  0  0  0  0  0  0  0  0
  -14.7420   -2.7264    5.0295 C   0  0  0  0  0  0  0  0  0  0  0  0
  -15.7947   -2.5397    4.1208 C   0  0  0  0  0  0  0  0  0  0  0  0
  -16.8660   -3.4985    4.0736 N   0  0  0  0  0  0  0  0  0  0  0  0
  -17.6893   -3.7426    2.9205 C   0  0  0  0  0  0  0  0  0  0  0  0
  -19.0362   -4.0968    3.0952 C   0  0  0  0  0  0  0  0  0  0  0  0
  -19.8487   -4.3567    1.9870 C   0  0  0  0  0  0  0  0  0  0  0  0
  -19.3170   -4.2824    0.6970 C   0  0  0  0  0  0  0  0  0  0  0  0
  -17.9709   -3.9548    0.5149 C   0  0  0  0  0  0  0  0  0  0  0  0
  -17.1559   -3.6943    1.6202 C   0  0  0  0  0  0  0  0  0  0  0  0
  -15.8121   -1.3814    3.3234 C   0  0  0  0  0  0  0  0  0  0  0  0
  -14.7780   -0.4460    3.4141 C   0  0  0  0  0  0  0  0  0  0  0  0
  -12.7851    1.4620    5.3663 C   0  0  0  0  0  0  0  0  0  0  0  0
  -12.6042    0.9805    6.8096 C   0  0  0  0  0  0  0  0  0  0  0  0
  -14.1183    2.2049    5.2030 C   0  0  0  0  0  0  0  0  0  0  0  0
   -8.9197    3.7661    5.0016 N   0  0  0  0  0  0  0  0  0  0  0  0
  -10.1155    4.5048    5.0073 N   0  0  0  0  0  0  0  0  0  0  0  0
  1  3  4  0
  1 14  4  0
  1  2  1  0
  3  4  4  0
  4  5  4  0
  5  6  4  0
  5 22  1  0
  6  7  1  0
  6 14  4  0
  7  8  1  0
  8  9  4  0
  8 12  4  0
  9 10  4  0
 10 11  4  0
 11 12  4  0
 12 13  1  0
 13 14  1  0
 13 15  1  6
 15 16  4  0
 15 20  4  0
 16 17  4  0
 17 18  4  0
 17 21  1  0
 18 19  4  0
 19 20  4  0
 23 24  4  0
 24 25  4  0
 25 26  1  0
 26 27  1  0
 27 28  1  0
 28 29  2  0
 28 30  1  0
 30 31  1  0
 31 32  4  0
 32 33  4  0
 33 34  4  0
 34 35  1  0
 35 36  1  0
 36 37  4  0
 37 38  4  0
 38 39  4  0
 39 40  4  0
 40 41  4  0
 34 42  4  0
 42 43  4  0
 30 44  1  0
 44 45  1  0
 44 46  1  0
 25 47  4  0
 47 48  1  0
 43 31  4  0
 41 36  4  0
  2 23  4  0
  2 47  4  0
M  END
$$$$

     RDKit          3D

 48 54  0  0  0  0  0  0  0  0999 V2000
   -7.6410    4.9930    6.8080 C   0  0  0  0  0  0  0  0  0  1  0  0
   -7.7310    4.0530    5.7140 C   0  0  0  0  0  0  0  0  0  2  0  0
   -6.4520    5.6300    6.8680 N   0  0  0  0  0  0  0  0  0  0  0  0
   -6.2260    6.5240    7.8670 N   0  0  0  0  0  0  0  0  0  0  0  0
   -7.1930    6.7500    8.7820 C   0  0  0  0  0  0  0  0  0  0  0  0
   -8.4240    6.1170    8.7580 C   0  0  0  0  0  0  0  0  0  0  0  0
   -9.3950    6.3570    9.7450 N   0  0  0  0  0  0  0  0  0  0  0  0
  -10.5620    5.6840    9.7600 C   0  0  0  0  0  0  0  0  0  0  0  0
  -11.5770    5.6820   10.5960 N   0  0  0  0  0  0  0  0  0  0  0  0
  -12.4690    4.7490   10.1080 N   0  0  0  0  0  0  0  0  0  0  0  0
  -12.0160    4.1880    8.9920 N   0  0  0  0  0  0  0  0  0  0  0  0
  -10.8400    4.7900    8.7610 N   0  0  0  0  0  0  0  0  0  0  0  0
   -9.9950    4.4790    7.6090 C   0  0  0  0  0  0  0  0  0  0  0  0
   -8.6630    5.2070    7.7200 C   0  0  0  0  0  0  0  0  0  0  0  0
  -10.7490    4.8610    6.3730 C   0  0  0  0  0  0  0  0  0  0  0  0
  -11.0350    6.2020    6.1170 C   0  0  0  0  0  0  0  0  0  0  0  0
  -11.7370    6.5580    4.9650 C   0  0  0  0  0  0  0  0  0  0  0  0
  -12.1550    5.5730    4.0710 C   0  0  0  0  0  0  0  0  0  0  0  0
  -11.8700    4.2310    4.3270 C   0  0  0  0  0  0  0  0  0  0  0  0
  -11.1660    3.8760    5.4790 C   0  0  0  0  0  0  0  0  0  0  0  0
  -12.0160    7.8660    4.7150 O   0  0  0  0  0  0  0  0  0  0  0  0
   -6.8990    7.6510    9.7710 O   0  0  0  0  0  0  0  0  0  0  0  0
   -6.7817    3.2213    5.2430 N   0  0  0  0  0  0  0  0  0  0  0  0
   -7.2852    2.4340    4.3003 N   0  0  0  0  0  0  0  0  0  0  0  0
   -8.5865    2.7508    4.1797 C   0  0  0  0  0  0  0  0  0  0  0  0
   -9.7070    1.9459    3.0377 S   0  0  0  0  0  0  0  0  0  0  0  0
   -9.4945    3.1976    1.7318 C   0  0  0  0  0  0  0  0  0  0  0  0
  -10.4649    2.9157    0.6260 C   0  0  0  0  0  0  0  0  0  0  0  0
  -11.4568    3.6741    0.4659 O   0  0  0  0  0  0  0  0  0  0  0  0
  -10.3137    1.7555   -0.2073 N   0  0  0  0  0  0  0  0  0  0  0  0
  -11.4008    0.8155   -0.2572 C   0  0  0  0  0  0  0  0  0  0  0  0
  -11.4151   -0.2936    0.6002 C   0  0  0  0  0  0  0  0  0  0  0  0
  -12.4853   -1.1907    0.5712 C   0  0  0  0  0  0  0  0  0  0  0  0
  -13.5570   -0.9944   -0.3145 C   0  0  0  0  0  0  0  0  0  0  0  0
  -14.6692   -1.9094   -0.2904 N   0  0  0  0  0  0  0  0  0  0  0  0
  -15.5584   -2.1613   -1.3931 C   0  0  0  0  0  0  0  0  0  0  0  0
  -16.8939   -2.5004   -1.1319 C   0  0  0  0  0  0  0  0  0  0  0  0
  -17.7675   -2.7933   -2.1832 C   0  0  0  0  0  0  0  0  0  0  0  0
  -17.3135   -2.7481   -3.5027 C   0  0  0  0  0  0  0  0  0  0  0  0
  -15.9802   -2.4303   -3.7729 C   0  0  0  0  0  0  0  0  0  0  0  0
  -15.1012   -2.1499   -2.7243 C   0  0  0  0  0  0  0  0  0  0  0  0
  -13.5560    0.1409   -1.1470 C   0  0  0  0  0  0  0  0  0  0  0  0
  -12.4810    1.0342   -1.1220 C   0  0  0  0  0  0  0  0  0  0  0  0
   -9.0550    1.5187   -0.9418 C   0  0  0  0  0  0  0  0  0  0  0  0
   -9.3249    1.2648   -2.4306 C   0  0  0  0  0  0  0  0  0  0  0  0
   -8.2616    0.3642   -0.3233 C   0  0  0  0  0  0  0  0  0  0  0  0
   -8.9276    3.7297    5.0329 N   0  0  0  0  0  0  0  0  0  0  0  0
  -10.1407    4.4362    5.0650 N   0  0  0  0  0  0  0  0  0  0  0  0
  1  3  4  0
  1 14  4  0
  1  2  1  0
  3  4  4  0
  4  5  4  0
  5  6  4  0
  5 22  1  0
  6  7  1  0
  6 14  4  0
  7  8  1  0
  8  9  4  0
  8 12  4  0
  9 10  4  0
 10 11  4  0
 11 12  4  0
 12 13  1  0
 13 14  1  0
 13 15  1  6
 15 16  4  0
 15 20  4  0
 16 17  4  0
 17 18  4  0
 17 21  1  0
 18 19  4  0
 19 20  4  0
 23 24  4  0
 24 25  4  0
 25 26  1  0
 26 27  1  0
 27 28  1  0
 28 29  2  0
 28 30  1  0
 30 31  1  0
 31 32  4  0
 32 33  4  0
 33 34  4  0
 34 35  1  0
 35 36  1  0
 36 37  4  0
 37 38  4  0
 38 39  4  0
 39 40  4  0
 40 41  4  0
 34 42  4  0
 42 43  4  0
 30 44  1  0
 44 45  1  0
 44 46  1  0
 25 47  4  0
 47 48  1  0
 43 31  4  0
 41 36  4  0
  2 23  4  0
  2 47  4  0
M  END
$$$$

     RDKit          3D

 48 54  0  0  0  0  0  0  0  0999 V2000
   -7.6410    4.9930    6.8080 C   0  0  0  0  0  0  0  0  0  1  0  0
   -7.7310    4.0530    5.7140 C   0  0  0  0  0  0  0  0  0  2  0  0
   -6.4520    5.6300    6.8680 N   0  0  0  0  0  0  0  0  0  0  0  0
   -6.2260    6.5240    7.8670 N   0  0  0  0  0  0  0  0  0  0  0  0
   -7.1930    6.7500    8.7820 C   0  0  0  0  0  0  0  0  0  0  0  0
   -8.4240    6.1170    8.7580 C   0  0  0  0  0  0  0  0  0  0  0  0
   -9.3950    6.3570    9.7450 N   0  0  0  0  0  0  0  0  0  0  0  0
  -10.5620    5.6840    9.7600 C   0  0  0  0  0  0  0  0  0  0  0  0
  -11.5770    5.6820   10.5960 N   0  0  0  0  0  0  0  0  0  0  0  0
  -12.4690    4.7490   10.1080 N   0  0  0  0  0  0  0  0  0  0  0  0
  -12.0160    4.1880    8.9920 N   0  0  0  0  0  0  0  0  0  0  0  0
  -10.8400    4.7900    8.7610 N   0  0  0  0  0  0  0  0  0  0  0  0
   -9.9950    4.4790    7.6090 C   0  0  0  0  0  0  0  0  0  0  0  0
   -8.6630    5.2070    7.7200 C   0  0  0  0  0  0  0  0  0  0  0  0
  -10.7490    4.8610    6.3730 C   0  0  0  0  0  0  0  0  0  0  0  0
  -11.0350    6.2020    6.1170 C   0  0  0  0  0  0  0  0  0  0  0  0
  -11.7370    6.5580    4.9650 C   0  0  0  0  0  0  0  0  0  0  0  0
  -12.1550    5.5730    4.0710 C   0  0  0  0  0  0  0  0  0  0  0  0
  -11.8700    4.2310    4.3270 C   0  0  0  0  0  0  0  0  0  0  0  0
  -11.1660    3.8760    5.4790 C   0  0  0  0  0  0  0  0  0  0  0  0
  -12.0160    7.8660    4.7150 O   0  0  0  0  0  0  0  0  0  0  0  0
   -6.8990    7.6510    9.7710 O   0  0  0  0  0  0  0  0  0  0  0  0
   -6.7841    3.2131    5.2501 N   0  0  0  0  0  0  0  0  0  0  0  0
   -7.2797    2.4468    4.2869 N   0  0  0  0  0  0  0  0  0  0  0  0
   -8.5751    2.7824    4.1472 C   0  0  0  0  0  0  0  0  0  0  0  0
   -9.6699    2.0362    2.9416 S   0  0  0  0  0  0  0  0  0  0  0  0
  -10.1785    0.7049    4.0778 C   0  0  0  0  0  0  0  0  0  0  0  0
  -11.0977   -0.2438    3.3762 C   0  0  0  0  0  0  0  0  0  0  0  0
  -12.2112    0.1681    2.9529 O   0  0  0  0  0  0  0  0  0  0  0  0
  -10.7567   -1.6328    3.2347 N   0  0  0  0  0  0  0  0  0  0  0  0
  -11.3455   -2.5782    4.1485 C   0  0  0  0  0  0  0  0  0  0  0  0
  -12.0088   -3.7200    3.6696 C   0  0  0  0  0  0  0  0  0  0  0  0
  -12.5742   -4.6366    4.5602 C   0  0  0  0  0  0  0  0  0  0  0  0
  -12.4734   -4.4333    5.9479 C   0  0  0  0  0  0  0  0  0  0  0  0
  -13.0651   -5.3518    6.8826 N   0  0  0  0  0  0  0  0  0  0  0  0
  -13.1525   -6.7733    6.6814 C   0  0  0  0  0  0  0  0  0  0  0  0
  -14.1840   -7.4949    7.3011 C   0  0  0  0  0  0  0  0  0  0  0  0
  -14.2712   -8.8813    7.1432 C   0  0  0  0  0  0  0  0  0  0  0  0
  -13.3216   -9.5597    6.3752 C   0  0  0  0  0  0  0  0  0  0  0  0
  -12.2772   -8.8543    5.7734 C   0  0  0  0  0  0  0  0  0  0  0  0
  -12.1858   -7.4680    5.9302 C   0  0  0  0  0  0  0  0  0  0  0  0
  -11.8400   -3.2778    6.4243 C   0  0  0  0  0  0  0  0  0  0  0  0
  -11.2772   -2.3590    5.5341 C   0  0  0  0  0  0  0  0  0  0  0  0
   -9.9127   -2.0966    2.1165 C   0  0  0  0  0  0  0  0  0  0  0  0
  -10.5234   -1.7063    0.7669 C   0  0  0  0  0  0  0  0  0  0  0  0
   -8.4831   -1.5658    2.2469 C   0  0  0  0  0  0  0  0  0  0  0  0
   -8.9211    3.7527    5.0091 N   0  0  0  0  0  0  0  0  0  0  0  0
  -10.1335    4.4634    5.0385 N   0  0  0  0  0  0  0  0  0  0  0  0
  1  3  4  0
  1 14  4  0
  1  2  1  0
  3  4  4  0
  4  5  4  0
  5  6  4  0
  5 22  1  0
  6  7  1  0
  6 14  4  0
  7  8  1  0
  8  9  4  0
  8 12  4  0
  9 10  4  0
 10 11  4  0
 11 12  4  0
 12 13  1  0
 13 14  1  0
 13 15  1  6
 15 16  4  0
 15 20  4  0
 16 17  4  0
 17 18  4  0
 17 21  1  0
 18 19  4  0
 19 20  4  0
 23 24  4  0
 24 25  4  0
 25 26  1  0
 26 27  1  0
 27 28  1  0
 28 29  2  0
 28 30  1  0
 30 31  1  0
 31 32  4  0
 32 33  4  0
 33 34  4  0
 34 35  1  0
 35 36  1  0
 36 37  4  0
 37 38  4  0
 38 39  4  0
 39 40  4  0
 40 41  4  0
 34 42  4  0
 42 43  4  0
 30 44  1  0
 44 45  1  0
 44 46  1  0
 25 47  4  0
 47 48  1  0
 43 31  4  0
 41 36  4  0
  2 23  4  0
  2 47  4  0
M  END
$$$$

     RDKit          3D

 48 54  0  0  0  0  0  0  0  0999 V2000
   -7.6410    4.9930    6.8080 C   0  0  0  0  0  0  0  0  0  1  0  0
   -7.7310    4.0530    5.7140 C   0  0  0  0  0  0  0  0  0  2  0  0
   -6.4520    5.6300    6.8680 N   0  0  0  0  0  0  0  0  0  0  0  0
   -6.2260    6.5240    7.8670 N   0  0  0  0  0  0  0  0  0  0  0  0
   -7.1930    6.7500    8.7820 C   0  0  0  0  0  0  0  0  0  0  0  0
   -8.4240    6.1170    8.7580 C   0  0  0  0  0  0  0  0  0  0  0  0
   -9.3950    6.3570    9.7450 N   0  0  0  0  0  0  0  0  0  0  0  0
  -10.5620    5.6840    9.7600 C   0  0  0  0  0  0  0  0  0  0  0  0
  -11.5770    5.6820   10.5960 N   0  0  0  0  0  0  0  0  0  0  0  0
  -12.4690    4.7490   10.1080 N   0  0  0  0  0  0  0  0  0  0  0  0
  -12.0160    4.1880    8.9920 N   0  0  0  0  0  0  0  0  0  0  0  0
  -10.8400    4.7900    8.7610 N   0  0  0  0  0  0  0  0  0  0  0  0
   -9.9950    4.4790    7.6090 C   0  0  0  0  0  0  0  0  0  0  0  0
   -8.6630    5.2070    7.7200 C   0  0  0  0  0  0  0  0  0  0  0  0
  -10.7490    4.8610    6.3730 C   0  0  0  0  0  0  0  0  0  0  0  0
  -11.0350    6.2020    6.1170 C   0  0  0  0  0  0  0  0  0  0  0  0
  -11.7370    6.5580    4.9650 C   0  0  0  0  0  0  0  0  0  0  0  0
  -12.1550    5.5730    4.0710 C   0  0  0  0  0  0  0  0  0  0  0  0
  -11.8700    4.2310    4.3270 C   0  0  0  0  0  0  0  0  0  0  0  0
  -11.1660    3.8760    5.4790 C   0  0  0  0  0  0  0  0  0  0  0  0
  -12.0160    7.8660    4.7150 O   0  0  0  0  0  0  0  0  0  0  0  0
   -6.8990    7.6510    9.7710 O   0  0  0  0  0  0  0  0  0  0  0  0
   -6.8040    3.1674    5.2926 N   0  0  0  0  0  0  0  0  0  0  0  0
   -7.3073    2.3950    4.3378 N   0  0  0  0  0  0  0  0  0  0  0  0
   -8.5867    2.7742    4.1598 C   0  0  0  0  0  0  0  0  0  0  0  0
   -9.6946    2.0126    2.9714 S   0  0  0  0  0  0  0  0  0  0  0  0
  -10.4943    0.9052    4.1856 C   0  0  0  0  0  0  0  0  0  0  0  0
  -10.5333   -0.4931    3.6488 C   0  0  0  0  0  0  0  0  0  0  0  0
  -11.3584   -0.7749    2.7375 O   0  0  0  0  0  0  0  0  0  0  0  0
   -9.6913   -1.5287    4.1911 N   0  0  0  0  0  0  0  0  0  0  0  0
  -10.3062   -2.7963    4.5018 C   0  0  0  0  0  0  0  0  0  0  0  0
   -9.8663   -3.9867    3.9003 C   0  0  0  0  0  0  0  0  0  0  0  0
  -10.4385   -5.2109    4.2588 C   0  0  0  0  0  0  0  0  0  0  0  0
  -11.4610   -5.2618    5.2205 C   0  0  0  0  0  0  0  0  0  0  0  0
  -12.0492   -6.5119    5.6127 N   0  0  0  0  0  0  0  0  0  0  0  0
  -11.3023   -7.7231    5.8335 C   0  0  0  0  0  0  0  0  0  0  0  0
   -9.9383   -7.6928    6.1840 C   0  0  0  0  0  0  0  0  0  0  0  0
   -9.2475   -8.8824    6.4346 C   0  0  0  0  0  0  0  0  0  0  0  0
   -9.9115  -10.1093    6.3530 C   0  0  0  0  0  0  0  0  0  0  0  0
  -11.2683  -10.1491    6.0222 C   0  0  0  0  0  0  0  0  0  0  0  0
  -11.9625   -8.9614    5.7691 C   0  0  0  0  0  0  0  0  0  0  0  0
  -11.9411   -4.0676    5.7733 C   0  0  0  0  0  0  0  0  0  0  0  0
  -11.3639   -2.8448    5.4221 C   0  0  0  0  0  0  0  0  0  0  0  0
   -8.2452   -1.2740    4.3855 C   0  0  0  0  0  0  0  0  0  0  0  0
   -7.6308   -2.1435    5.4935 C   0  0  0  0  0  0  0  0  0  0  0  0
   -7.4791   -1.4290    3.0677 C   0  0  0  0  0  0  0  0  0  0  0  0
   -8.9131    3.7821    4.9862 N   0  0  0  0  0  0  0  0  0  0  0  0
  -10.1157    4.5062    5.0076 N   0  0  0  0  0  0  0  0  0  0  0  0
  1  3  4  0
  1 14  4  0
  1  2  1  0
  3  4  4  0
  4  5  4  0
  5  6  4  0
  5 22  1  0
  6  7  1  0
  6 14  4  0
  7  8  1  0
  8  9  4  0
  8 12  4  0
  9 10  4  0
 10 11  4  0
 11 12  4  0
 12 13  1  0
 13 14  1  0
 13 15  1  6
 15 16  4  0
 15 20  4  0
 16 17  4  0
 17 18  4  0
 17 21  1  0
 18 19  4  0
 19 20  4  0
 23 24  4  0
 24 25  4  0
 25 26  1  0
 26 27  1  0
 27 28  1  0
 28 29  2  0
 28 30  1  0
 30 31  1  0
 31 32  4  0
 32 33  4  0
 33 34  4  0
 34 35  1  0
 35 36  1  0
 36 37  4  0
 37 38  4  0
 38 39  4  0
 39 40  4  0
 40 41  4  0
 34 42  4  0
 42 43  4  0
 30 44  1  0
 44 45  1  0
 44 46  1  0
 25 47  4  0
 47 48  1  0
 43 31  4  0
 41 36  4  0
  2 23  4  0
  2 47  4  0
M  END
$$$$

     RDKit          3D

 48 54  0  0  0  0  0  0  0  0999 V2000
   -7.6410    4.9930    6.8080 C   0  0  0  0  0  0  0  0  0  1  0  0
   -7.7310    4.0530    5.7140 C   0  0  0  0  0  0  0  0  0  2  0  0
   -6.4520    5.6300    6.8680 N   0  0  0  0  0  0  0  0  0  0  0  0
   -6.2260    6.5240    7.8670 N   0  0  0  0  0  0  0  0  0  0  0  0
   -7.1930    6.7500    8.7820 C   0  0  0  0  0  0  0  0  0  0  0  0
   -8.4240    6.1170    8.7580 C   0  0  0  0  0  0  0  0  0  0  0  0
   -9.3950    6.3570    9.7450 N   0  0  0  0  0  0  0  0  0  0  0  0
  -10.5620    5.6840    9.7600 C   0  0  0  0  0  0  0  0  0  0  0  0
  -11.5770    5.6820   10.5960 N   0  0  0  0  0  0  0  0  0  0  0  0
  -12.4690    4.7490   10.1080 N   0  0  0  0  0  0  0  0  0  0  0  0
  -12.0160    4.1880    8.9920 N   0  0  0  0  0  0  0  0  0  0  0  0
  -10.8400    4.7900    8.7610 N   0  0  0  0  0  0  0  0  0  0  0  0
   -9.9950    4.4790    7.6090 C   0  0  0  0  0  0  0  0  0  0  0  0
   -8.6630    5.2070    7.7200 C   0  0  0  0  0  0  0  0  0  0  0  0
  -10.7490    4.8610    6.3730 C   0  0  0  0  0  0  0  0  0  0  0  0
  -11.0350    6.2020    6.1170 C   0  0  0  0  0  0  0  0  0  0  0  0
  -11.7370    6.5580    4.9650 C   0  0  0  0  0  0  0  0  0  0  0  0
  -12.1550    5.5730    4.0710 C   0  0  0  0  0  0  0  0  0  0  0  0
  -11.8700    4.2310    4.3270 C   0  0  0  0  0  0  0  0  0  0  0  0
  -11.1660    3.8760    5.4790 C   0  0  0  0  0  0  0  0  0  0  0  0
  -12.0160    7.8660    4.7150 O   0  0  0  0  0  0  0  0  0  0  0  0
   -6.8990    7.6510    9.7710 O   0  0  0  0  0  0  0  0  0  0  0  0
   -6.8640    3.0623    5.4108 N   0  0  0  0  0  0  0  0  0  0  0  0
   -7.2817    2.4184    4.3316 N   0  0  0  0  0  0  0  0  0  0  0  0
   -8.4452    2.9849    3.9639 C   0  0  0  0  0  0  0  0  0  0  0  0
   -9.3477    2.5073    2.4863 S   0  0  0  0  0  0  0  0  0  0  0  0
  -10.5142    1.4049    3.3568 C   0  0  0  0  0  0  0  0  0  0  0  0
   -9.8890    0.0668    3.6118 C   0  0  0  0  0  0  0  0  0  0  0  0
   -9.0056   -0.0423    4.5048 O   0  0  0  0  0  0  0  0  0  0  0  0
  -10.3232   -1.0885    2.8776 N   0  0  0  0  0  0  0  0  0  0  0  0
   -9.6714   -2.3671    2.9714 C   0  0  0  0  0  0  0  0  0  0  0  0
   -8.2686   -2.4370    2.8920 C   0  0  0  0  0  0  0  0  0  0  0  0
   -7.6164   -3.6697    2.9063 C   0  0  0  0  0  0  0  0  0  0  0  0
   -8.3543   -4.8487    2.9880 C   0  0  0  0  0  0  0  0  0  0  0  0
   -9.7473   -4.8002    3.0590 C   0  0  0  0  0  0  0  0  0  0  0  0
  -10.4266   -3.5659    3.0537 C   0  0  0  0  0  0  0  0  0  0  0  0
  -11.9077   -3.5472    3.1845 C   0  0  0  0  0  0  0  0  0  0  0  0
  -12.7506   -4.6760    2.6739 C   0  0  0  0  0  0  0  0  0  0  0  0
  -12.4758   -2.5958    3.7860 O   0  0  0  0  0  0  0  0  0  0  0  0
   -8.7988    3.9851    4.7969 N   0  0  0  0  0  0  0  0  0  0  0  0
   -9.8736    4.9642    4.6037 C   0  0  0  0  0  0  0  0  0  0  0  0
   -9.3322    6.2109    3.8905 C   0  0  0  0  0  0  0  0  0  0  0  0
  -10.3490    7.3036    3.6234 C   0  0  0  0  0  0  0  0  0  0  0  0
   -9.9022    8.4723    2.9822 C   0  0  0  0  0  0  0  0  0  0  0  0
  -10.7882    9.5175    2.7074 C   0  0  0  0  0  0  0  0  0  0  0  0
  -12.1316    9.4108    3.0700 C   0  0  0  0  0  0  0  0  0  0  0  0
  -12.5917    8.2580    3.7081 C   0  0  0  0  0  0  0  0  0  0  0  0
  -11.7105    7.2085    3.9864 C   0  0  0  0  0  0  0  0  0  0  0  0
  1  3  4  0
  1 14  4  0
  1  2  1  0
  3  4  4  0
  4  5  4  0
  5  6  4  0
  5 22  1  0
  6  7  1  0
  6 14  4  0
  7  8  1  0
  8  9  4  0
  8 12  4  0
  9 10  4  0
 10 11  4  0
 11 12  4  0
 12 13  1  0
 13 14  1  0
 13 15  1  6
 15 16  4  0
 15 20  4  0
 16 17  4  0
 17 18  4  0
 17 21  1  0
 18 19  4  0
 19 20  4  0
 23 24  4  0
 24 25  4  0
 25 26  1  0
 26 27  1  0
 27 28  1  0
 28 29  2  0
 28 30  1  0
 30 31  1  0
 31 32  4  0
 32 33  4  0
 33 34  4  0
 34 35  4  0
 35 36  4  0
 36 37  1  0
 37 38  1  0
 37 39  2  0
 25 40  4  0
 40 41  1  0
 41 42  1  0
 42 43  1  0
 43 44  4  0
 44 45  4  0
 45 46  4  0
 46 47  4  0
 47 48  4  0
 48 43  4  0
 36 31  4  0
  2 23  4  0
  2 40  4  0
M  END
$$$$

     RDKit          3D

 48 55  0  0  0  0  0  0  0  0999 V2000
   -7.6410    4.9930    6.8080 C   0  0  0  0  0  0  0  0  0  1  0  0
   -7.7310    4.0530    5.7140 C   0  0  0  0  0  0  0  0  0  2  0  0
   -6.4520    5.6300    6.8680 N   0  0  0  0  0  0  0  0  0  0  0  0
   -6.2260    6.5240    7.8670 N   0  0  0  0  0  0  0  0  0  0  0  0
   -7.1930    6.7500    8.7820 C   0  0  0  0  0  0  0  0  0  0  0  0
   -8.4240    6.1170    8.7580 C   0  0  0  0  0  0  0  0  0  0  0  0
   -9.3950    6.3570    9.7450 N   0  0  0  0  0  0  0  0  0  0  0  0
  -10.5620    5.6840    9.7600 C   0  0  0  0  0  0  0  0  0  0  0  0
  -11.5770    5.6820   10.5960 N   0  0  0  0  0  0  0  0  0  0  0  0
  -12.4690    4.7490   10.1080 N   0  0  0  0  0  0  0  0  0  0  0  0
  -12.0160    4.1880    8.9920 N   0  0  0  0  0  0  0  0  0  0  0  0
  -10.8400    4.7900    8.7610 N   0  0  0  0  0  0  0  0  0  0  0  0
   -9.9950    4.4790    7.6090 C   0  0  0  0  0  0  0  0  0  0  0  0
   -8.6630    5.2070    7.7200 C   0  0  0  0  0  0  0  0  0  0  0  0
  -10.7490    4.8610    6.3730 C   0  0  0  0  0  0  0  0  0  0  0  0
  -11.0350    6.2020    6.1170 C   0  0  0  0  0  0  0  0  0  0  0  0
  -11.7370    6.5580    4.9650 C   0  0  0  0  0  0  0  0  0  0  0  0
  -12.1550    5.5730    4.0710 C   0  0  0  0  0  0  0  0  0  0  0  0
  -11.8700    4.2310    4.3270 C   0  0  0  0  0  0  0  0  0  0  0  0
  -11.1660    3.8760    5.4790 C   0  0  0  0  0  0  0  0  0  0  0  0
  -12.0160    7.8660    4.7150 O   0  0  0  0  0  0  0  0  0  0  0  0
   -6.8990    7.6510    9.7710 O   0  0  0  0  0  0  0  0  0  0  0  0
   -6.8935    2.9421    5.5109 C   0  0  0  0  0  0  0  0  0  0  0  0
   -7.4241    1.9686    4.2329 S   0  0  0  0  0  0  0  0  0  0  0  0
   -8.7721    2.9028    3.8987 C   0  0  0  0  0  0  0  0  0  0  0  0
   -9.6778    2.6868    2.9212 N   0  0  0  0  0  0  0  0  0  0  0  0
  -10.7058    3.5641    2.7668 C   0  0  0  0  0  0  0  0  0  0  0  0
  -10.8226    4.6651    3.5823 N   0  0  0  0  0  0  0  0  0  0  0  0
  -11.9171    5.6168    3.3283 C   0  0  0  0  0  0  0  0  0  0  0  0
  -11.5339    6.5995    2.2631 C   0  0  0  0  0  0  0  0  0  0  0  0
  -12.4151    7.3679    1.7923 O   0  0  0  0  0  0  0  0  0  0  0  0
  -10.2082    6.6491    1.8001 O   0  0  0  0  0  0  0  0  0  0  0  0
   -9.7471    7.3949    0.6676 C   0  0  0  0  0  0  0  0  0  0  0  0
   -9.7302    8.8874    0.9340 C   0  0  0  0  0  0  0  0  0  0  0  0
  -10.4058    9.3602    1.8869 O   0  0  0  0  0  0  0  0  0  0  0  0
   -8.9629    9.7871    0.1210 N   0  0  0  0  0  0  0  0  0  0  0  0
   -8.0300    9.3248   -0.9048 C   0  0  0  0  0  0  0  0  0  0  0  0
   -7.6937   10.3797   -1.9484 C   0  0  0  0  0  0  0  0  0  0  0  0
   -8.6382    9.2389   -2.2931 C   0  0  0  0  0  0  0  0  0  0  0  0
  -10.5115    6.9976   -0.5823 C   0  0  0  0  0  0  0  0  0  0  0  0
  -10.1963    5.7803   -1.2109 C   0  0  0  0  0  0  0  0  0  0  0  0
  -10.9056    5.3591   -2.3399 C   0  0  0  0  0  0  0  0  0  0  0  0
  -11.9422    6.1435   -2.8478 C   0  0  0  0  0  0  0  0  0  0  0  0
  -12.2761    7.3477   -2.2245 C   0  0  0  0  0  0  0  0  0  0  0  0
  -11.5719    7.7722   -1.0932 C   0  0  0  0  0  0  0  0  0  0  0  0
   -9.8870    4.9044    4.5639 C   0  0  0  0  0  0  0  0  0  0  0  0
   -9.9505    5.9506    5.2655 O   0  0  0  0  0  0  0  0  0  0  0  0
   -8.8460    3.9825    4.7539 C   0  0  0  0  0  0  0  0  0  0  0  0
  1  3  4  0
  1 14  4  0
  1  2  1  0
  3  4  4  0
  4  5  4  0
  5  6  4  0
  5 22  1  0
  6  7  1  0
  6 14  4  0
  7  8  1  0
  8  9  4  0
  8 12  4  0
  9 10  4  0
 10 11  4  0
 11 12  4  0
 12 13  1  0
 13 14  1  0
 13 15  1  6
 15 16  4  0
 15 20  4  0
 16 17  4  0
 17 18  4  0
 17 21  1  0
 18 19  4  0
 19 20  4  0
 23 24  4  0
 24 25  4  0
 25 26  4  0
 26 27  4  0
 27 28  4  0
 28 29  1  0
 29 30  1  0
 30 31  2  0
 30 32  1  0
 32 33  1  0
 33 34  1  0
 34 35  2  0
 34 36  1  0
 36 37  1  0
 37 38  1  0
 38 39  1  0
 33 40  1  0
 40 41  4  0
 41 42  4  0
 42 43  4  0
 43 44  4  0
 44 45  4  0
 28 46  4  0
 46 47  2  0
 46 48  4  0
 48 25  4  0
 39 37  1  0
 45 40  4  0
  2 23  4  0
  2 48  4  0
M  END
$$$$

     RDKit          3D

 40 46  0  0  0  0  0  0  0  0999 V2000
   -7.6410    4.9930    6.8080 C   0  0  0  0  0  0  0  0  0  1  0  0
   -7.7310    4.0530    5.7140 C   0  0  0  0  0  0  0  0  0  2  0  0
   -6.4520    5.6300    6.8680 N   0  0  0  0  0  0  0  0  0  0  0  0
   -6.2260    6.5240    7.8670 N   0  0  0  0  0  0  0  0  0  0  0  0
   -7.1930    6.7500    8.7820 C   0  0  0  0  0  0  0  0  0  0  0  0
   -8.4240    6.1170    8.7580 C   0  0  0  0  0  0  0  0  0  0  0  0
   -9.3950    6.3570    9.7450 N   0  0  0  0  0  0  0  0  0  0  0  0
  -10.5620    5.6840    9.7600 C   0  0  0  0  0  0  0  0  0  0  0  0
  -11.5770    5.6820   10.5960 N   0  0  0  0  0  0  0  0  0  0  0  0
  -12.4690    4.7490   10.1080 N   0  0  0  0  0  0  0  0  0  0  0  0
  -12.0160    4.1880    8.9920 N   0  0  0  0  0  0  0  0  0  0  0  0
  -10.8400    4.7900    8.7610 N   0  0  0  0  0  0  0  0  0  0  0  0
   -9.9950    4.4790    7.6090 C   0  0  0  0  0  0  0  0  0  0  0  0
   -8.6630    5.2070    7.7200 C   0  0  0  0  0  0  0  0  0  0  0  0
  -10.7490    4.8610    6.3730 C   0  0  0  0  0  0  0  0  0  0  0  0
  -11.0350    6.2020    6.1170 C   0  0  0  0  0  0  0  0  0  0  0  0
  -11.7370    6.5580    4.9650 C   0  0  0  0  0  0  0  0  0  0  0  0
  -12.1550    5.5730    4.0710 C   0  0  0  0  0  0  0  0  0  0  0  0
  -11.8700    4.2310    4.3270 C   0  0  0  0  0  0  0  0  0  0  0  0
  -11.1660    3.8760    5.4790 C   0  0  0  0  0  0  0  0  0  0  0  0
  -12.0160    7.8660    4.7150 O   0  0  0  0  0  0  0  0  0  0  0  0
   -6.8990    7.6510    9.7710 O   0  0  0  0  0  0  0  0  0  0  0  0
   -6.8311    3.0957    5.3790 N   0  0  0  0  0  0  0  0  0  0  0  0
   -7.3259    2.4808    4.2873 C   0  0  0  0  0  0  0  0  0  0  0  0
   -6.6912    1.4648    3.5772 C   0  0  0  0  0  0  0  0  0  0  0  0
   -7.3329    0.9643    2.4352 C   0  0  0  0  0  0  0  0  0  0  0  0
   -8.5771    1.4891    2.0280 C   0  0  0  0  0  0  0  0  0  0  0  0
   -9.2274    0.9848    0.8592 N   0  0  0  0  0  0  0  0  0  0  0  0
   -9.1688    2.5164    2.7841 C   0  0  0  0  0  0  0  0  0  0  0  0
   -8.5171    2.9653    3.8917 N   0  0  0  0  0  0  0  0  0  0  0  0
   -8.8316    3.9368    4.7716 C   0  0  0  0  0  0  0  0  0  0  0  0
   -9.9897    4.9049    4.6326 C   0  0  0  0  0  0  0  0  0  0  0  0
   -9.5475    6.2482    4.1822 N   0  0  0  0  0  0  0  0  0  0  0  0
  -10.6859    7.2160    4.2239 C   0  0  0  0  0  0  0  0  0  0  0  0
  -11.2466    7.5514    2.8288 C   0  0  0  0  0  0  0  0  0  0  0  0
  -12.4680    8.4726    2.9326 C   0  0  0  0  0  0  0  0  0  0  0  0
  -10.1480    8.1922    1.9553 C   0  0  0  0  0  0  0  0  0  0  0  0
   -8.7589    7.5326    2.1523 C   0  0  0  0  0  0  0  0  0  0  0  0
   -7.7826    8.4591    2.8947 C   0  0  0  0  0  0  0  0  0  0  0  0
   -8.8771    6.1640    2.8543 C   0  0  0  0  0  0  0  0  0  0  0  0
  1  3  4  0
  1 14  4  0
  1  2  1  0
  3  4  4  0
  4  5  4  0
  5  6  4  0
  5 22  1  0
  6  7  1  0
  6 14  4  0
  7  8  1  0
  8  9  4  0
  8 12  4  0
  9 10  4  0
 10 11  4  0
 11 12  4  0
 12 13  1  0
 13 14  1  0
 13 15  1  6
 15 16  4  0
 15 20  4  0
 16 17  4  0
 17 18  4  0
 17 21  1  0
 18 19  4  0
 19 20  4  0
 23 24  4  0
 24 25  4  0
 25 26  4  0
 26 27  4  0
 27 28  1  0
 27 29  4  0
 29 30  4  0
 30 31  4  0
 31 32  1  0
 32 33  1  0
 33 34  1  0
 34 35  1  0
 35 36  1  0
 35 37  1  0
 37 38  1  0
 38 39  1  0
 38 40  1  0
 40 33  1  0
 30 24  4  0
  2 23  4  0
  2 31  4  0
M  CHG  1  33   1
M  END
$$$$

     RDKit          3D

 33 38  0  0  0  0  0  0  0  0999 V2000
   -7.6410    4.9930    6.8080 C   0  0  0  0  0  0  0  0  0  1  0  0
   -7.7310    4.0530    5.7140 C   0  0  0  0  0  0  0  0  0  2  0  0
   -6.4520    5.6300    6.8680 N   0  0  0  0  0  0  0  0  0  0  0  0
   -6.2260    6.5240    7.8670 N   0  0  0  0  0  0  0  0  0  0  0  0
   -7.1930    6.7500    8.7820 C   0  0  0  0  0  0  0  0  0  0  0  0
   -8.4240    6.1170    8.7580 C   0  0  0  0  0  0  0  0  0  0  0  0
   -9.3950    6.3570    9.7450 N   0  0  0  0  0  0  0  0  0  0  0  0
  -10.5620    5.6840    9.7600 C   0  0  0  0  0  0  0  0  0  0  0  0
  -11.5770    5.6820   10.5960 N   0  0  0  0  0  0  0  0  0  0  0  0
  -12.4690    4.7490   10.1080 N   0  0  0  0  0  0  0  0  0  0  0  0
  -12.0160    4.1880    8.9920 N   0  0  0  0  0  0  0  0  0  0  0  0
  -10.8400    4.7900    8.7610 N   0  0  0  0  0  0  0  0  0  0  0  0
   -9.9950    4.4790    7.6090 C   0  0  0  0  0  0  0  0  0  0  0  0
   -8.6630    5.2070    7.7200 C   0  0  0  0  0  0  0  0  0  0  0  0
  -10.7490    4.8610    6.3730 C   0  0  0  0  0  0  0  0  0  0  0  0
  -11.0350    6.2020    6.1170 C   0  0  0  0  0  0  0  0  0  0  0  0
  -11.7370    6.5580    4.9650 C   0  0  0  0  0  0  0  0  0  0  0  0
  -12.1550    5.5730    4.0710 C   0  0  0  0  0  0  0  0  0  0  0  0
  -11.8700    4.2310    4.3270 C   0  0  0  0  0  0  0  0  0  0  0  0
  -11.1660    3.8760    5.4790 C   0  0  0  0  0  0  0  0  0  0  0  0
  -12.0160    7.8660    4.7150 O   0  0  0  0  0  0  0  0  0  0  0  0
   -6.8990    7.6510    9.7710 O   0  0  0  0  0  0  0  0  0  0  0  0
   -6.8199    3.0913    5.3057 C   0  0  0  0  0  0  0  0  0  0  0  0
   -7.3504    2.3687    4.2539 C   0  0  0  0  0  0  0  0  0  0  0  0
   -6.6263    1.3366    3.4889 C   0  0  0  0  0  0  0  0  0  0  0  0
   -5.5111    0.9182    3.8974 O   0  0  0  0  0  0  0  0  0  0  0  0
   -7.1424    0.8358    2.3008 O   0  0  0  0  0  0  0  0  0  0  0  0
   -8.6377    2.8535    4.0446 C   0  0  0  0  0  0  0  0  0  0  0  0
   -9.5988    2.3813    2.9823 C   0  0  0  0  0  0  0  0  0  0  0  0
   -9.9988    0.9139    3.0800 C   0  0  0  0  0  0  0  0  0  0  0  0
  -10.9808    1.9902    3.4934 C   0  0  0  0  0  0  0  0  0  0  0  0
   -8.8807    3.8800    4.8957 N   0  0  0  0  0  0  0  0  0  0  0  0
  -10.0689    4.7377    4.9042 C   0  0  0  0  0  0  0  0  0  0  0  0
  1  3  4  0
  1 14  4  0
  1  2  1  0
  3  4  4  0
  4  5  4  0
  5  6  4  0
  5 22  1  0
  6  7  1  0
  6 14  4  0
  7  8  1  0
  8  9  4  0
  8 12  4  0
  9 10  4  0
 10 11  4  0
 11 12  4  0
 12 13  1  0
 13 14  1  0
 13 15  1  6
 15 16  4  0
 15 20  4  0
 16 17  4  0
 17 18  4  0
 17 21  1  0
 18 19  4  0
 19 20  4  0
 23 24  4  0
 24 25  1  0
 25 26  2  0
 25 27  1  0
 24 28  4  0
 28 29  1  0
 29 30  1  0
 30 31  1  0
 28 32  4  0
 32 33  1  0
 31 29  1  0
  2 23  4  0
  2 32  4  0
M  CHG  1  27  -1
M  END
$$$$

     RDKit          3D

 44 51  0  0  0  0  0  0  0  0999 V2000
   -7.6410    4.9930    6.8080 C   0  0  0  0  0  0  0  0  0  1  0  0
   -7.7310    4.0530    5.7140 C   0  0  0  0  0  0  0  0  0  2  0  0
   -6.4520    5.6300    6.8680 N   0  0  0  0  0  0  0  0  0  0  0  0
   -6.2260    6.5240    7.8670 N   0  0  0  0  0  0  0  0  0  0  0  0
   -7.1930    6.7500    8.7820 C   0  0  0  0  0  0  0  0  0  0  0  0
   -8.4240    6.1170    8.7580 C   0  0  0  0  0  0  0  0  0  0  0  0
   -9.3950    6.3570    9.7450 N   0  0  0  0  0  0  0  0  0  0  0  0
  -10.5620    5.6840    9.7600 C   0  0  0  0  0  0  0  0  0  0  0  0
  -11.5770    5.6820   10.5960 N   0  0  0  0  0  0  0  0  0  0  0  0
  -12.4690    4.7490   10.1080 N   0  0  0  0  0  0  0  0  0  0  0  0
  -12.0160    4.1880    8.9920 N   0  0  0  0  0  0  0  0  0  0  0  0
  -10.8400    4.7900    8.7610 N   0  0  0  0  0  0  0  0  0  0  0  0
   -9.9950    4.4790    7.6090 C   0  0  0  0  0  0  0  0  0  0  0  0
   -8.6630    5.2070    7.7200 C   0  0  0  0  0  0  0  0  0  0  0  0
  -10.7490    4.8610    6.3730 C   0  0  0  0  0  0  0  0  0  0  0  0
  -11.0350    6.2020    6.1170 C   0  0  0  0  0  0  0  0  0  0  0  0
  -11.7370    6.5580    4.9650 C   0  0  0  0  0  0  0  0  0  0  0  0
  -12.1550    5.5730    4.0710 C   0  0  0  0  0  0  0  0  0  0  0  0
  -11.8700    4.2310    4.3270 C   0  0  0  0  0  0  0  0  0  0  0  0
  -11.1660    3.8760    5.4790 C   0  0  0  0  0  0  0  0  0  0  0  0
  -12.0160    7.8660    4.7150 O   0  0  0  0  0  0  0  0  0  0  0  0
   -6.8990    7.6510    9.7710 O   0  0  0  0  0  0  0  0  0  0  0  0
   -6.7496    3.2214    5.3919 O   0  0  0  0  0  0  0  0  0  0  0  0
   -6.7936    2.2788    4.4561 C   0  0  0  0  0  0  0  0  0  0  0  0
   -5.6608    1.5009    4.2089 C   0  0  0  0  0  0  0  0  0  0  0  0
   -5.6828    0.4886    3.2355 C   0  0  0  0  0  0  0  0  0  0  0  0
   -4.4357   -0.3193    2.9871 C   0  0  0  0  0  0  0  0  0  0  0  0
   -6.8614    0.2730    2.4820 C   0  0  0  0  0  0  0  0  0  0  0  0
   -6.9277   -0.8013    1.4276 C   0  0  0  0  0  0  0  0  0  0  0  0
   -8.0021    1.0530    2.7408 C   0  0  0  0  0  0  0  0  0  0  0  0
   -7.9746    2.0582    3.7217 C   0  0  0  0  0  0  0  0  0  0  0  0
   -9.0858    2.8728    3.9904 C   0  0  0  0  0  0  0  0  0  0  0  0
  -10.1640    2.7250    3.3520 O   0  0  0  0  0  0  0  0  0  0  0  0
   -8.9880    3.8762    4.9607 C   0  0  0  0  0  0  0  0  0  0  0  0
  -10.0701    4.7435    5.1592 O   0  0  0  0  0  0  0  0  0  0  0  0
  -10.0269    6.1127    4.7605 C   0  0  0  0  0  0  0  0  0  0  0  0
   -9.9472    6.2075    3.2698 C   0  0  0  0  0  0  0  0  0  0  0  0
   -8.8221    6.6114    2.5479 C   0  0  0  0  0  0  0  0  0  0  0  0
   -9.1562    6.4610    1.2652 N   0  0  0  0  0  0  0  0  0  0  0  0
   -8.5678    6.6095    0.0603 C   0  0  0  0  0  0  0  0  0  0  0  0
   -9.4307    6.2352   -0.9808 C   0  0  0  0  0  0  0  0  0  0  0  0
  -10.9281    5.7096   -0.3256 S   0  0  0  0  0  0  0  0  0  0  0  0
  -10.3884    6.0015    1.2328 C   0  0  0  0  0  0  0  0  0  0  0  0
  -10.9514    5.8071    2.4383 N   0  0  0  0  0  0  0  0  0  0  0  0
  1  3  4  0
  1 14  4  0
  1  2  1  0
  3  4  4  0
  4  5  4  0
  5  6  4  0
  5 22  1  0
  6  7  1  0
  6 14  4  0
  7  8  1  0
  8  9  4  0
  8 12  4  0
  9 10  4  0
 10 11  4  0
 11 12  4  0
 12 13  1  0
 13 14  1  0
 13 15  1  6
 15 16  4  0
 15 20  4  0
 16 17  4  0
 17 18  4  0
 17 21  1  0
 18 19  4  0
 19 20  4  0
 23 24  4  0
 24 25  4  0
 25 26  4  0
 26 27  1  0
 26 28  4  0
 28 29  1  0
 28 30  4  0
 30 31  4  0
 31 32  4  0
 32 33  2  0
 32 34  4  0
 34 35  1  0
 35 36  1  0
 36 37  1  0
 37 38  4  0
 38 39  4  0
 39 40  4  0
 40 41  4  0
 41 42  4  0
 42 43  4  0
 43 44  4  0
 44 37  4  0
 31 24  4  0
 43 39  4  0
  2 23  4  0
  2 34  4  0
M  END
$$$$

     RDKit          3D

 49 55  0  0  0  0  0  0  0  0999 V2000
   -7.6410    4.9930    6.8080 C   0  0  0  0  0  0  0  0  0  1  0  0
   -7.7310    4.0530    5.7140 C   0  0  0  0  0  0  0  0  0  2  0  0
   -6.4520    5.6300    6.8680 N   0  0  0  0  0  0  0  0  0  0  0  0
   -6.2260    6.5240    7.8670 N   0  0  0  0  0  0  0  0  0  0  0  0
   -7.1930    6.7500    8.7820 C   0  0  0  0  0  0  0  0  0  0  0  0
   -8.4240    6.1170    8.7580 C   0  0  0  0  0  0  0  0  0  0  0  0
   -9.3950    6.3570    9.7450 N   0  0  0  0  0  0  0  0  0  0  0  0
  -10.5620    5.6840    9.7600 C   0  0  0  0  0  0  0  0  0  0  0  0
  -11.5770    5.6820   10.5960 N   0  0  0  0  0  0  0  0  0  0  0  0
  -12.4690    4.7490   10.1080 N   0  0  0  0  0  0  0  0  0  0  0  0
  -12.0160    4.1880    8.9920 N   0  0  0  0  0  0  0  0  0  0  0  0
  -10.8400    4.7900    8.7610 N   0  0  0  0  0  0  0  0  0  0  0  0
   -9.9950    4.4790    7.6090 C   0  0  0  0  0  0  0  0  0  0  0  0
   -8.6630    5.2070    7.7200 C   0  0  0  0  0  0  0  0  0  0  0  0
  -10.7490    4.8610    6.3730 C   0  0  0  0  0  0  0  0  0  0  0  0
  -11.0350    6.2020    6.1170 C   0  0  0  0  0  0  0  0  0  0  0  0
  -11.7370    6.5580    4.9650 C   0  0  0  0  0  0  0  0  0  0  0  0
  -12.1550    5.5730    4.0710 C   0  0  0  0  0  0  0  0  0  0  0  0
  -11.8700    4.2310    4.3270 C   0  0  0  0  0  0  0  0  0  0  0  0
  -11.1660    3.8760    5.4790 C   0  0  0  0  0  0  0  0  0  0  0  0
  -12.0160    7.8660    4.7150 O   0  0  0  0  0  0  0  0  0  0  0  0
   -6.8990    7.6510    9.7710 O   0  0  0  0  0  0  0  0  0  0  0  0
   -6.7894    3.2094    5.2513 N   0  0  0  0  0  0  0  0  0  0  0  0
   -7.2504    2.4957    4.2347 N   0  0  0  0  0  0  0  0  0  0  0  0
   -6.4475    1.5498    3.5012 C   0  0  0  0  0  0  0  0  0  0  0  0
   -5.2618    1.0454    4.0684 C   0  0  0  0  0  0  0  0  0  0  0  0
   -4.4632    0.1414    3.3601 C   0  0  0  0  0  0  0  0  0  0  0  0
   -4.8333   -0.2651    2.0758 C   0  0  0  0  0  0  0  0  0  0  0  0
   -6.0063    0.2279    1.5005 C   0  0  0  0  0  0  0  0  0  0  0  0
   -6.8121    1.1290    2.2059 C   0  0  0  0  0  0  0  0  0  0  0  0
   -8.5382    2.8265    3.9989 C   0  0  0  0  0  0  0  0  0  0  0  0
   -8.9226    3.7805    4.9233 C   0  0  0  0  0  0  0  0  0  0  0  0
  -10.1619    4.5875    4.9187 C   0  0  0  0  0  0  0  0  0  0  0  0
  -11.3633    4.1614    4.5019 C   0  0  0  0  0  0  0  0  0  0  0  0
  -11.7057    2.7586    4.1871 C   0  0  0  0  0  0  0  0  0  0  0  0
  -11.2024    1.8258    4.8711 O   0  0  0  0  0  0  0  0  0  0  0  0
  -12.6877    2.4413    3.1224 C   0  0  0  0  0  0  0  0  0  0  0  0
  -12.8911    3.3250    2.0531 C   0  0  0  0  0  0  0  0  0  0  0  0
  -13.8148    3.0217    1.0542 C   0  0  0  0  0  0  0  0  0  0  0  0
  -14.5661    1.8404    1.0959 C   0  0  0  0  0  0  0  0  0  0  0  0
  -15.4862    1.6431    0.0482 O   0  0  0  0  0  0  0  0  0  0  0  0
  -16.6446    0.8073    0.0528 C   0  0  0  0  0  0  0  0  0  0  0  0
  -17.6694    1.3103    1.0225 C   0  0  0  0  0  0  0  0  0  0  0  0
  -17.4635    1.2480    2.2638 O   0  0  0  0  0  0  0  0  0  0  0  0
  -18.8603    1.8499    0.5546 O   0  0  0  0  0  0  0  0  0  0  0  0
  -14.3487    0.9181    2.1506 C   0  0  0  0  0  0  0  0  0  0  0  0
  -15.0400   -0.3049    2.1652 O   0  0  0  0  0  0  0  0  0  0  0  0
  -14.9356   -1.2917    3.1862 C   0  0  0  0  0  0  0  0  0  0  0  0
  -13.4149    1.2382    3.1603 C   0  0  0  0  0  0  0  0  0  0  0  0
  1  3  4  0
  1 14  4  0
  1  2  1  0
  3  4  4  0
  4  5  4  0
  5  6  4  0
  5 22  1  0
  6  7  1  0
  6 14  4  0
  7  8  1  0
  8  9  4  0
  8 12  4  0
  9 10  4  0
 10 11  4  0
 11 12  4  0
 12 13  1  0
 13 14  1  0
 13 15  1  6
 15 16  4  0
 15 20  4  0
 16 17  4  0
 17 18  4  0
 17 21  1  0
 18 19  4  0
 19 20  4  0
 23 24  4  0
 24 25  1  0
 25 26  4  0
 26 27  4  0
 27 28  4  0
 28 29  4  0
 29 30  4  0
 24 31  4  0
 31 32  4  0
 32 33  1  0
 33 34  2  3
 34 35  1  0
 35 36  2  0
 35 37  1  0
 37 38  4  0
 38 39  4  0
 39 40  4  0
 40 41  1  0
 41 42  1  0
 42 43  1  0
 43 44  2  0
 43 45  1  0
 40 46  4  0
 46 47  1  0
 47 48  1  0
 46 49  4  0
 49 37  4  0
 30 25  4  0
  2 23  4  0
  2 32  4  0
M  CHG  1  45  -1
M  END
$$$$

     RDKit          3D

 42 46  0  0  0  0  0  0  0  0999 V2000
   -7.6410    4.9930    6.8080 C   0  0  0  0  0  0  0  0  0  1  0  0
   -7.7310    4.0530    5.7140 C   0  0  0  0  0  0  0  0  0  2  0  0
   -6.4520    5.6300    6.8680 N   0  0  0  0  0  0  0  0  0  0  0  0
   -6.2260    6.5240    7.8670 N   0  0  0  0  0  0  0  0  0  0  0  0
   -7.1930    6.7500    8.7820 C   0  0  0  0  0  0  0  0  0  0  0  0
   -8.4240    6.1170    8.7580 C   0  0  0  0  0  0  0  0  0  0  0  0
   -9.3950    6.3570    9.7450 N   0  0  0  0  0  0  0  0  0  0  0  0
  -10.5620    5.6840    9.7600 C   0  0  0  0  0  0  0  0  0  0  0  0
  -11.5770    5.6820   10.5960 N   0  0  0  0  0  0  0  0  0  0  0  0
  -12.4690    4.7490   10.1080 N   0  0  0  0  0  0  0  0  0  0  0  0
  -12.0160    4.1880    8.9920 N   0  0  0  0  0  0  0  0  0  0  0  0
  -10.8400    4.7900    8.7610 N   0  0  0  0  0  0  0  0  0  0  0  0
   -9.9950    4.4790    7.6090 C   0  0  0  0  0  0  0  0  0  0  0  0
   -8.6630    5.2070    7.7200 C   0  0  0  0  0  0  0  0  0  0  0  0
  -10.7490    4.8610    6.3730 C   0  0  0  0  0  0  0  0  0  0  0  0
  -11.0350    6.2020    6.1170 C   0  0  0  0  0  0  0  0  0  0  0  0
  -11.7370    6.5580    4.9650 C   0  0  0  0  0  0  0  0  0  0  0  0
  -12.1550    5.5730    4.0710 C   0  0  0  0  0  0  0  0  0  0  0  0
  -11.8700    4.2310    4.3270 C   0  0  0  0  0  0  0  0  0  0  0  0
  -11.1660    3.8760    5.4790 C   0  0  0  0  0  0  0  0  0  0  0  0
  -12.0160    7.8660    4.7150 O   0  0  0  0  0  0  0  0  0  0  0  0
   -6.8990    7.6510    9.7710 O   0  0  0  0  0  0  0  0  0  0  0  0
   -6.8732    3.0485    5.4279 N   0  0  0  0  0  0  0  0  0  0  0  0
   -7.2967    2.3906    4.3591 N   0  0  0  0  0  0  0  0  0  0  0  0
   -8.4493    2.9681    3.9737 C   0  0  0  0  0  0  0  0  0  0  0  0
   -9.3932    2.4173    2.5466 S   0  0  0  0  0  0  0  0  0  0  0  0
   -8.5226    3.4851    1.3416 C   0  0  0  0  0  0  0  0  0  0  0  0
   -7.1911    2.8578    0.9221 C   0  0  0  0  0  0  0  0  0  0  0  0
   -9.4039    3.7079    0.1427 C   0  0  0  0  0  0  0  0  0  0  0  0
   -9.7741    4.8817   -0.1351 O   0  0  0  0  0  0  0  0  0  0  0  0
   -9.8277    2.5979   -0.6695 N   0  0  0  0  0  0  0  0  0  0  0  0
  -10.5454    2.7351   -1.9064 C   0  0  0  0  0  0  0  0  0  0  0  0
  -10.8444    3.8767   -2.3503 O   0  0  0  0  0  0  0  0  0  0  0  0
  -10.9200    1.5620   -2.6402 N   0  0  0  0  0  0  0  0  0  0  0  0
  -11.5603    1.6172   -3.9546 C   0  0  0  0  0  0  0  0  0  0  0  0
  -10.5117    1.7159   -5.0634 C   0  0  0  0  0  0  0  0  0  0  0  0
  -11.1406    1.7005   -6.2957 F   0  0  0  0  0  0  0  0  0  0  0  0
   -9.6440    0.6385   -4.9881 F   0  0  0  0  0  0  0  0  0  0  0  0
   -9.7906    2.8912   -4.9434 F   0  0  0  0  0  0  0  0  0  0  0  0
   -8.7932    3.9879    4.7900 N   0  0  0  0  0  0  0  0  0  0  0  0
   -9.9146    4.9247    4.6381 C   0  0  0  0  0  0  0  0  0  0  0  0
   -9.4235    6.3036    4.2031 C   0  0  0  0  0  0  0  0  0  0  0  0
  1  3  4  0
  1 14  4  0
  1  2  1  0
  3  4  4  0
  4  5  4  0
  5  6  4  0
  5 22  1  0
  6  7  1  0
  6 14  4  0
  7  8  1  0
  8  9  4  0
  8 12  4  0
  9 10  4  0
 10 11  4  0
 11 12  4  0
 12 13  1  0
 13 14  1  0
 13 15  1  6
 15 16  4  0
 15 20  4  0
 16 17  4  0
 17 18  4  0
 17 21  1  0
 18 19  4  0
 19 20  4  0
 23 24  4  0
 24 25  4  0
 25 26  1  0
 26 27  1  0
 27 28  1  0
 27 29  1  0
 29 30  2  0
 29 31  1  0
 31 32  1  0
 32 33  2  0
 32 34  1  0
 34 35  1  0
 35 36  1  0
 36 37  1  0
 36 38  1  0
 36 39  1  0
 25 40  4  0
 40 41  1  0
 41 42  1  0
  2 23  4  0
  2 40  4  0
M  END
$$$$

     RDKit          3D

 43 50  0  0  0  0  0  0  0  0999 V2000
   -7.6410    4.9930    6.8080 C   0  0  0  0  0  0  0  0  0  1  0  0
   -7.7310    4.0530    5.7140 C   0  0  0  0  0  0  0  0  0  2  0  0
   -6.4520    5.6300    6.8680 N   0  0  0  0  0  0  0  0  0  0  0  0
   -6.2260    6.5240    7.8670 N   0  0  0  0  0  0  0  0  0  0  0  0
   -7.1930    6.7500    8.7820 C   0  0  0  0  0  0  0  0  0  0  0  0
   -8.4240    6.1170    8.7580 C   0  0  0  0  0  0  0  0  0  0  0  0
   -9.3950    6.3570    9.7450 N   0  0  0  0  0  0  0  0  0  0  0  0
  -10.5620    5.6840    9.7600 C   0  0  0  0  0  0  0  0  0  0  0  0
  -11.5770    5.6820   10.5960 N   0  0  0  0  0  0  0  0  0  0  0  0
  -12.4690    4.7490   10.1080 N   0  0  0  0  0  0  0  0  0  0  0  0
  -12.0160    4.1880    8.9920 N   0  0  0  0  0  0  0  0  0  0  0  0
  -10.8400    4.7900    8.7610 N   0  0  0  0  0  0  0  0  0  0  0  0
   -9.9950    4.4790    7.6090 C   0  0  0  0  0  0  0  0  0  0  0  0
   -8.6630    5.2070    7.7200 C   0  0  0  0  0  0  0  0  0  0  0  0
  -10.7490    4.8610    6.3730 C   0  0  0  0  0  0  0  0  0  0  0  0
  -11.0350    6.2020    6.1170 C   0  0  0  0  0  0  0  0  0  0  0  0
  -11.7370    6.5580    4.9650 C   0  0  0  0  0  0  0  0  0  0  0  0
  -12.1550    5.5730    4.0710 C   0  0  0  0  0  0  0  0  0  0  0  0
  -11.8700    4.2310    4.3270 C   0  0  0  0  0  0  0  0  0  0  0  0
  -11.1660    3.8760    5.4790 C   0  0  0  0  0  0  0  0  0  0  0  0
  -12.0160    7.8660    4.7150 O   0  0  0  0  0  0  0  0  0  0  0  0
   -6.8990    7.6510    9.7710 O   0  0  0  0  0  0  0  0  0  0  0  0
   -8.7291    4.2063    4.6531 C   0  0  0  0  0  0  0  0  0  0  0  0
   -9.5990    5.4279    4.6005 C   0  0  0  0  0  0  0  0  0  0  0  0
   -8.8679    3.3006    3.6896 O   0  0  0  0  0  0  0  0  0  0  0  0
   -8.1466    2.1859    3.6247 C   0  0  0  0  0  0  0  0  0  0  0  0
   -8.3558    1.2729    2.5755 C   0  0  0  0  0  0  0  0  0  0  0  0
   -7.5740    0.1102    2.4972 C   0  0  0  0  0  0  0  0  0  0  0  0
   -6.6116   -0.1595    3.4721 C   0  0  0  0  0  0  0  0  0  0  0  0
   -6.4076    0.7357    4.5247 C   0  0  0  0  0  0  0  0  0  0  0  0
   -7.1701    1.9152    4.6091 C   0  0  0  0  0  0  0  0  0  0  0  0
   -6.9958    2.8412    5.6505 C   0  0  0  0  0  0  0  0  0  0  0  0
   -6.1425    2.6288    6.5568 O   0  0  0  0  0  0  0  0  0  0  0  0
   -7.7850   -0.7951    1.4550 O   0  0  0  0  0  0  0  0  0  0  0  0
   -8.6447   -0.4767    0.3598 C   0  0  0  0  0  0  0  0  0  0  0  0
   -9.8248    0.2896    0.8212 N   0  0  0  0  0  0  0  0  0  0  0  0
  -10.6944   -0.5490    1.6930 C   0  0  0  0  0  0  0  0  0  0  0  0
  -12.1533   -0.0404    1.7679 C   0  0  0  0  0  0  0  0  0  0  0  0
  -13.0874   -1.1114    2.3084 C   0  0  0  0  0  0  0  0  0  0  0  0
  -14.1713   -0.3053    2.9511 C   0  0  0  0  0  0  0  0  0  0  0  0
  -13.4704    0.9904    3.3138 C   0  0  0  0  0  0  0  0  0  0  0  0
  -12.2509    1.0838    2.6119 O   0  0  0  0  0  0  0  0  0  0  0  0
   -9.3686    1.5385    1.4822 C   0  0  0  0  0  0  0  0  0  0  0  0
  1  3  4  0
  1 14  4  0
  1  2  1  0
  3  4  4  0
  4  5  4  0
  5  6  4  0
  5 22  1  0
  6  7  1  0
  6 14  4  0
  7  8  1  0
  8  9  4  0
  8 12  4  0
  9 10  4  0
 10 11  4  0
 11 12  4  0
 12 13  1  0
 13 14  1  0
 13 15  1  6
 15 16  4  0
 15 20  4  0
 16 17  4  0
 17 18  4  0
 17 21  1  0
 18 19  4  0
 19 20  4  0
 23 24  1  0
 23 25  4  0
 25 26  4  0
 26 27  4  0
 27 28  4  0
 28 29  4  0
 29 30  4  0
 30 31  4  0
 31 32  4  0
 32 33  2  0
 28 34  1  0
 34 35  1  0
 35 36  1  0
 36 37  1  0
 37 38  1  0
 38 39  1  0
 39 40  1  0
 40 41  1  0
 41 42  1  0
 36 43  1  0
 42 38  1  0
 31 26  4  0
 43 27  1  0
  2 23  4  0
  2 32  4  0
M  CHG  1  36   1
M  END
$$$$

     RDKit          3D

 43 50  0  0  0  0  0  0  0  0999 V2000
   -7.6410    4.9930    6.8080 C   0  0  0  0  0  0  0  0  0  1  0  0
   -7.7310    4.0530    5.7140 C   0  0  0  0  0  0  0  0  0  2  0  0
   -6.4520    5.6300    6.8680 N   0  0  0  0  0  0  0  0  0  0  0  0
   -6.2260    6.5240    7.8670 N   0  0  0  0  0  0  0  0  0  0  0  0
   -7.1930    6.7500    8.7820 C   0  0  0  0  0  0  0  0  0  0  0  0
   -8.4240    6.1170    8.7580 C   0  0  0  0  0  0  0  0  0  0  0  0
   -9.3950    6.3570    9.7450 N   0  0  0  0  0  0  0  0  0  0  0  0
  -10.5620    5.6840    9.7600 C   0  0  0  0  0  0  0  0  0  0  0  0
  -11.5770    5.6820   10.5960 N   0  0  0  0  0  0  0  0  0  0  0  0
  -12.4690    4.7490   10.1080 N   0  0  0  0  0  0  0  0  0  0  0  0
  -12.0160    4.1880    8.9920 N   0  0  0  0  0  0  0  0  0  0  0  0
  -10.8400    4.7900    8.7610 N   0  0  0  0  0  0  0  0  0  0  0  0
   -9.9950    4.4790    7.6090 C   0  0  0  0  0  0  0  0  0  0  0  0
   -8.6630    5.2070    7.7200 C   0  0  0  0  0  0  0  0  0  0  0  0
  -10.7490    4.8610    6.3730 C   0  0  0  0  0  0  0  0  0  0  0  0
  -11.0350    6.2020    6.1170 C   0  0  0  0  0  0  0  0  0  0  0  0
  -11.7370    6.5580    4.9650 C   0  0  0  0  0  0  0  0  0  0  0  0
  -12.1550    5.5730    4.0710 C   0  0  0  0  0  0  0  0  0  0  0  0
  -11.8700    4.2310    4.3270 C   0  0  0  0  0  0  0  0  0  0  0  0
  -11.1660    3.8760    5.4790 C   0  0  0  0  0  0  0  0  0  0  0  0
  -12.0160    7.8660    4.7150 O   0  0  0  0  0  0  0  0  0  0  0  0
   -6.8990    7.6510    9.7710 O   0  0  0  0  0  0  0  0  0  0  0  0
   -8.7253    4.2095    4.6509 C   0  0  0  0  0  0  0  0  0  0  0  0
   -9.5878    5.4360    4.5943 C   0  0  0  0  0  0  0  0  0  0  0  0
   -8.8668    3.3025    3.6889 O   0  0  0  0  0  0  0  0  0  0  0  0
   -8.1503    2.1846    3.6269 C   0  0  0  0  0  0  0  0  0  0  0  0
   -8.3608    1.2710    2.5783 C   0  0  0  0  0  0  0  0  0  0  0  0
   -7.5769    0.1100    2.4978 C   0  0  0  0  0  0  0  0  0  0  0  0
   -6.6167   -0.1614    3.4747 C   0  0  0  0  0  0  0  0  0  0  0  0
   -6.4155    0.7311    4.5297 C   0  0  0  0  0  0  0  0  0  0  0  0
   -7.1759    1.9120    4.6133 C   0  0  0  0  0  0  0  0  0  0  0  0
   -7.0006    2.8381    5.6543 C   0  0  0  0  0  0  0  0  0  0  0  0
   -6.1505    2.6231    6.5629 O   0  0  0  0  0  0  0  0  0  0  0  0
   -7.7776   -0.7900    1.4490 O   0  0  0  0  0  0  0  0  0  0  0  0
   -8.6511   -0.4835    0.3610 C   0  0  0  0  0  0  0  0  0  0  0  0
   -9.8251    0.2895    0.8260 N   0  0  0  0  0  0  0  0  0  0  0  0
  -10.7082   -0.5197    1.7200 C   0  0  0  0  0  0  0  0  0  0  0  0
  -11.9997   -0.9852    1.0162 C   0  0  0  0  0  0  0  0  0  0  0  0
  -11.7439   -2.0142   -0.0713 C   0  0  0  0  0  0  0  0  0  0  0  0
  -13.0322   -2.7752   -0.1000 C   0  0  0  0  0  0  0  0  0  0  0  0
  -13.5660   -2.6063    1.3118 C   0  0  0  0  0  0  0  0  0  0  0  0
  -12.8767   -1.5587    1.9586 O   0  0  0  0  0  0  0  0  0  0  0  0
   -9.3696    1.5395    1.4832 C   0  0  0  0  0  0  0  0  0  0  0  0
  1  3  4  0
  1 14  4  0
  1  2  1  0
  3  4  4  0
  4  5  4  0
  5  6  4  0
  5 22  1  0
  6  7  1  0
  6 14  4  0
  7  8  1  0
  8  9  4  0
  8 12  4  0
  9 10  4  0
 10 11  4  0
 11 12  4  0
 12 13  1  0
 13 14  1  0
 13 15  1  6
 15 16  4  0
 15 20  4  0
 16 17  4  0
 17 18  4  0
 17 21  1  0
 18 19  4  0
 19 20  4  0
 23 24  1  0
 23 25  4  0
 25 26  4  0
 26 27  4  0
 27 28  4  0
 28 29  4  0
 29 30  4  0
 30 31  4  0
 31 32  4  0
 32 33  2  0
 28 34  1  0
 34 35  1  0
 35 36  1  0
 36 37  1  0
 37 38  1  0
 38 39  1  0
 39 40  1  0
 40 41  1  0
 41 42  1  0
 36 43  1  0
 42 38  1  0
 31 26  4  0
 43 27  1  0
  2 23  4  0
  2 32  4  0
M  CHG  1  36   1
M  END
$$$$

     RDKit          3D

 48 54  0  0  0  0  0  0  0  0999 V2000
   -7.6410    4.9930    6.8080 C   0  0  0  0  0  0  0  0  0  1  0  0
   -7.7310    4.0530    5.7140 C   0  0  0  0  0  0  0  0  0  2  0  0
   -6.4520    5.6300    6.8680 N   0  0  0  0  0  0  0  0  0  0  0  0
   -6.2260    6.5240    7.8670 N   0  0  0  0  0  0  0  0  0  0  0  0
   -7.1930    6.7500    8.7820 C   0  0  0  0  0  0  0  0  0  0  0  0
   -8.4240    6.1170    8.7580 C   0  0  0  0  0  0  0  0  0  0  0  0
   -9.3950    6.3570    9.7450 N   0  0  0  0  0  0  0  0  0  0  0  0
  -10.5620    5.6840    9.7600 C   0  0  0  0  0  0  0  0  0  0  0  0
  -11.5770    5.6820   10.5960 N   0  0  0  0  0  0  0  0  0  0  0  0
  -12.4690    4.7490   10.1080 N   0  0  0  0  0  0  0  0  0  0  0  0
  -12.0160    4.1880    8.9920 N   0  0  0  0  0  0  0  0  0  0  0  0
  -10.8400    4.7900    8.7610 N   0  0  0  0  0  0  0  0  0  0  0  0
   -9.9950    4.4790    7.6090 C   0  0  0  0  0  0  0  0  0  0  0  0
   -8.6630    5.2070    7.7200 C   0  0  0  0  0  0  0  0  0  0  0  0
  -10.7490    4.8610    6.3730 C   0  0  0  0  0  0  0  0  0  0  0  0
  -11.0350    6.2020    6.1170 C   0  0  0  0  0  0  0  0  0  0  0  0
  -11.7370    6.5580    4.9650 C   0  0  0  0  0  0  0  0  0  0  0  0
  -12.1550    5.5730    4.0710 C   0  0  0  0  0  0  0  0  0  0  0  0
  -11.8700    4.2310    4.3270 C   0  0  0  0  0  0  0  0  0  0  0  0
  -11.1660    3.8760    5.4790 C   0  0  0  0  0  0  0  0  0  0  0  0
  -12.0160    7.8660    4.7150 O   0  0  0  0  0  0  0  0  0  0  0  0
   -6.8990    7.6510    9.7710 O   0  0  0  0  0  0  0  0  0  0  0  0
   -7.0973    2.8124    5.4944 C   0  0  0  0  0  0  0  0  0  0  0  0
   -5.9758    2.2617    6.2927 C   0  0  0  0  0  0  0  0  0  0  0  0
   -5.4565    2.9618    7.2013 O   0  0  0  0  0  0  0  0  0  0  0  0
   -5.4570    0.9432    6.0637 N   0  0  0  0  0  0  0  0  0  0  0  0
   -6.1322    0.0186    5.2456 N   0  0  0  0  0  0  0  0  0  0  0  0
   -5.6744   -1.1553    4.9226 C   0  0  0  0  0  0  0  0  0  0  0  0
   -4.3242   -1.6392    5.2753 C   0  0  0  0  0  0  0  0  0  0  0  0
   -4.1693   -2.9276    5.7997 C   0  0  0  0  0  0  0  0  0  0  0  0
   -2.8980   -3.4161    6.1112 C   0  0  0  0  0  0  0  0  0  0  0  0
   -1.7501   -2.6328    5.8838 C   0  0  0  0  0  0  0  0  0  0  0  0
   -0.4315   -3.1450    6.2032 N   0  0  0  0  0  0  0  0  0  0  0  0
    0.7300   -2.8424    5.3474 C   0  0  0  0  0  0  0  0  0  0  0  0
    0.5262   -3.3891    3.9357 C   0  0  0  0  0  0  0  0  0  0  0  0
   -0.2262   -3.9787    7.3983 C   0  0  0  0  0  0  0  0  0  0  0  0
   -0.0272   -5.4429    7.0139 C   0  0  0  0  0  0  0  0  0  0  0  0
   -1.9123   -1.3508    5.3258 C   0  0  0  0  0  0  0  0  0  0  0  0
   -3.1848   -0.8651    5.0128 C   0  0  0  0  0  0  0  0  0  0  0  0
   -7.6945    2.1570    4.4774 N   0  0  0  0  0  0  0  0  0  0  0  0
   -8.7105    2.9010    4.0678 N   0  0  0  0  0  0  0  0  0  0  0  0
   -8.7850    4.0157    4.7755 N   0  0  0  0  0  0  0  0  0  0  0  0
   -9.8324    4.9805    4.6089 C   0  0  0  0  0  0  0  0  0  0  0  0
  -11.1193    4.6634    4.3927 N   0  0  0  0  0  0  0  0  0  0  0  0
  -11.7425    5.8064    4.2861 O   0  0  0  0  0  0  0  0  0  0  0  0
  -10.9646    6.8490    4.4035 N   0  0  0  0  0  0  0  0  0  0  0  0
   -9.7360    6.3497    4.6100 C   0  0  0  0  0  0  0  0  0  0  0  0
   -8.5492    7.1387    4.6551 N   0  0  0  0  0  0  0  0  0  0  0  0
  1  3  4  0
  1 14  4  0
  1  2  1  0
  3  4  4  0
  4  5  4  0
  5  6  4  0
  5 22  1  0
  6  7  1  0
  6 14  4  0
  7  8  1  0
  8  9  4  0
  8 12  4  0
  9 10  4  0
 10 11  4  0
 11 12  4  0
 12 13  1  0
 13 14  1  0
 13 15  1  6
 15 16  4  0
 15 20  4  0
 16 17  4  0
 17 18  4  0
 17 21  1  0
 18 19  4  0
 19 20  4  0
 23 24  1  0
 24 25  2  0
 24 26  1  0
 26 27  1  0
 27 28  2  3
 28 29  1  0
 29 30  4  0
 30 31  4  0
 31 32  4  0
 32 33  1  0
 33 34  1  0
 34 35  1  0
 33 36  1  0
 36 37  1  0
 32 38  4  0
 38 39  4  0
 23 40  4  0
 40 41  4  0
 41 42  4  0
 42 43  1  0
 43 44  4  0
 44 45  4  0
 45 46  4  0
 46 47  4  0
 47 48  1  0
 47 43  4  0
 39 29  4  0
  2 23  4  0
  2 42  4  0
M  END
$$$$

     RDKit          3D

 49 57  0  0  0  0  0  0  0  0999 V2000
   -7.6410    4.9930    6.8080 C   0  0  0  0  0  0  0  0  0  1  0  0
   -7.7310    4.0530    5.7140 C   0  0  0  0  0  0  0  0  0  2  0  0
   -6.4520    5.6300    6.8680 N   0  0  0  0  0  0  0  0  0  0  0  0
   -6.2260    6.5240    7.8670 N   0  0  0  0  0  0  0  0  0  0  0  0
   -7.1930    6.7500    8.7820 C   0  0  0  0  0  0  0  0  0  0  0  0
   -8.4240    6.1170    8.7580 C   0  0  0  0  0  0  0  0  0  0  0  0
   -9.3950    6.3570    9.7450 N   0  0  0  0  0  0  0  0  0  0  0  0
  -10.5620    5.6840    9.7600 C   0  0  0  0  0  0  0  0  0  0  0  0
  -11.5770    5.6820   10.5960 N   0  0  0  0  0  0  0  0  0  0  0  0
  -12.4690    4.7490   10.1080 N   0  0  0  0  0  0  0  0  0  0  0  0
  -12.0160    4.1880    8.9920 N   0  0  0  0  0  0  0  0  0  0  0  0
  -10.8400    4.7900    8.7610 N   0  0  0  0  0  0  0  0  0  0  0  0
   -9.9950    4.4790    7.6090 C   0  0  0  0  0  0  0  0  0  0  0  0
   -8.6630    5.2070    7.7200 C   0  0  0  0  0  0  0  0  0  0  0  0
  -10.7490    4.8610    6.3730 C   0  0  0  0  0  0  0  0  0  0  0  0
  -11.0350    6.2020    6.1170 C   0  0  0  0  0  0  0  0  0  0  0  0
  -11.7370    6.5580    4.9650 C   0  0  0  0  0  0  0  0  0  0  0  0
  -12.1550    5.5730    4.0710 C   0  0  0  0  0  0  0  0  0  0  0  0
  -11.8700    4.2310    4.3270 C   0  0  0  0  0  0  0  0  0  0  0  0
  -11.1660    3.8760    5.4790 C   0  0  0  0  0  0  0  0  0  0  0  0
  -12.0160    7.8660    4.7150 O   0  0  0  0  0  0  0  0  0  0  0  0
   -6.8990    7.6510    9.7710 O   0  0  0  0  0  0  0  0  0  0  0  0
   -6.8183    3.0584    5.3257 C   0  0  0  0  0  0  0  0  0  0  0  0
   -7.3552    2.3626    4.3156 N   0  0  0  0  0  0  0  0  0  0  0  0
   -7.0742    1.3846    3.4404 C   0  0  0  0  0  0  0  0  0  0  0  0
   -5.7989    0.6421    3.3554 C   0  0  0  0  0  0  0  0  0  0  0  0
   -4.9305    0.3473    4.7181 S   0  0  0  0  0  0  0  0  0  0  0  0
   -5.2456    0.3429    2.0657 N   0  0  0  0  0  0  0  0  0  0  0  0
   -4.3883   -0.7776    1.7935 C   0  0  0  0  0  0  0  0  0  0  0  0
   -4.5822   -2.0167    2.4325 C   0  0  0  0  0  0  0  0  0  0  0  0
   -3.7662   -3.1080    2.1158 C   0  0  0  0  0  0  0  0  0  0  0  0
   -2.7543   -2.9722    1.1591 C   0  0  0  0  0  0  0  0  0  0  0  0
   -2.5623   -1.7473    0.5125 C   0  0  0  0  0  0  0  0  0  0  0  0
   -3.3838   -0.6575    0.8186 C   0  0  0  0  0  0  0  0  0  0  0  0
   -8.1748    1.2798    2.5714 C   0  0  0  0  0  0  0  0  0  1  0  0
   -8.3240    0.2982    1.4762 C   0  0  0  0  0  0  0  0  0  2  0  0
   -8.0965   -1.0664    1.7230 C   0  0  0  0  0  0  0  0  0  0  0  0
   -8.2197   -2.0014    0.6915 C   0  0  0  0  0  0  0  0  0  0  0  0
   -8.5693   -1.5828   -0.5952 C   0  0  0  0  0  0  0  0  0  0  0  0
   -8.7199   -2.7558   -1.8907 Cl  0  0  0  0  0  0  0  0  0  0  0  0
   -8.7978   -0.2255   -0.8489 C   0  0  0  0  0  0  0  0  0  0  0  0
   -8.6761    0.7118    0.1821 C   0  0  0  0  0  0  0  0  0  0  0  0
   -9.1310    2.2372    2.9755 C   0  0  0  0  0  0  0  0  0  0  0  0
   -8.5390    2.8633    4.0573 C   0  0  0  0  0  0  0  0  0  0  0  0
   -8.8738    3.8946    4.8618 N   0  0  0  0  0  0  0  0  0  0  0  0
  -10.1301    4.6492    4.9301 C   0  0  0  0  0  0  0  0  0  0  0  0
  -10.8610    4.7231    3.5859 C   0  0  0  0  0  0  0  0  0  0  0  0
  -11.4034    3.3557    3.1396 C   0  0  0  0  0  0  0  0  0  0  0  0
  -10.4078    2.5895    2.2670 C   0  0  0  0  0  0  0  0  0  0  0  0
  1  3  4  0
  1 14  4  0
  1  2  1  0
  3  4  4  0
  4  5  4  0
  5  6  4  0
  5 22  1  0
  6  7  1  0
  6 14  4  0
  7  8  1  0
  8  9  4  0
  8 12  4  0
  9 10  4  0
 10 11  4  0
 11 12  4  0
 12 13  1  0
 13 14  1  0
 13 15  1  6
 15 16  4  0
 15 20  4  0
 16 17  4  0
 17 18  4  0
 17 21  1  0
 18 19  4  0
 19 20  4  0
 23 24  4  0
 24 25  4  0
 25 26  1  0
 26 27  2  0
 26 28  1  0
 28 29  1  0
 29 30  4  0
 30 31  4  0
 31 32  4  0
 32 33  4  0
 33 34  4  0
 25 35  4  0
 35 36  1  0
 36 37  4  0
 37 38  4  0
 38 39  4  0
 39 40  1  0
 39 41  4  0
 41 42  4  0
 35 43  4  0
 43 44  4  0
 44 45  4  0
 45 46  1  0
 46 47  1  0
 47 48  1  0
 48 49  1  0
 44 24  4  0
 34 29  4  0
 42 36  4  0
 49 43  1  0
  2 23  4  0
  2 45  4  0
M  END
$$$$

     RDKit          3D

 49 57  0  0  0  0  0  0  0  0999 V2000
   -7.6410    4.9930    6.8080 C   0  0  0  0  0  0  0  0  0  1  0  0
   -7.7310    4.0530    5.7140 C   0  0  0  0  0  0  0  0  0  2  0  0
   -6.4520    5.6300    6.8680 N   0  0  0  0  0  0  0  0  0  0  0  0
   -6.2260    6.5240    7.8670 N   0  0  0  0  0  0  0  0  0  0  0  0
   -7.1930    6.7500    8.7820 C   0  0  0  0  0  0  0  0  0  0  0  0
   -8.4240    6.1170    8.7580 C   0  0  0  0  0  0  0  0  0  0  0  0
   -9.3950    6.3570    9.7450 N   0  0  0  0  0  0  0  0  0  0  0  0
  -10.5620    5.6840    9.7600 C   0  0  0  0  0  0  0  0  0  0  0  0
  -11.5770    5.6820   10.5960 N   0  0  0  0  0  0  0  0  0  0  0  0
  -12.4690    4.7490   10.1080 N   0  0  0  0  0  0  0  0  0  0  0  0
  -12.0160    4.1880    8.9920 N   0  0  0  0  0  0  0  0  0  0  0  0
  -10.8400    4.7900    8.7610 N   0  0  0  0  0  0  0  0  0  0  0  0
   -9.9950    4.4790    7.6090 C   0  0  0  0  0  0  0  0  0  0  0  0
   -8.6630    5.2070    7.7200 C   0  0  0  0  0  0  0  0  0  0  0  0
  -10.7490    4.8610    6.3730 C   0  0  0  0  0  0  0  0  0  0  0  0
  -11.0350    6.2020    6.1170 C   0  0  0  0  0  0  0  0  0  0  0  0
  -11.7370    6.5580    4.9650 C   0  0  0  0  0  0  0  0  0  0  0  0
  -12.1550    5.5730    4.0710 C   0  0  0  0  0  0  0  0  0  0  0  0
  -11.8700    4.2310    4.3270 C   0  0  0  0  0  0  0  0  0  0  0  0
  -11.1660    3.8760    5.4790 C   0  0  0  0  0  0  0  0  0  0  0  0
  -12.0160    7.8660    4.7150 O   0  0  0  0  0  0  0  0  0  0  0  0
   -6.8990    7.6510    9.7710 O   0  0  0  0  0  0  0  0  0  0  0  0
   -6.8215    3.0549    5.3288 C   0  0  0  0  0  0  0  0  0  0  0  0
   -7.3622    2.3614    4.3201 N   0  0  0  0  0  0  0  0  0  0  0  0
   -7.0759    1.3918    3.4411 C   0  0  0  0  0  0  0  0  0  0  0  0
   -5.8052    0.6477    3.3866 C   0  0  0  0  0  0  0  0  0  0  0  0
   -4.9648    0.6204    1.9747 S   0  0  0  0  0  0  0  0  0  0  0  0
   -5.2217    0.1429    4.5999 N   0  0  0  0  0  0  0  0  0  0  0  0
   -4.2547   -0.9189    4.6514 C   0  0  0  0  0  0  0  0  0  0  0  0
   -4.3231   -2.0125    3.7687 C   0  0  0  0  0  0  0  0  0  0  0  0
   -3.3905   -3.0505    3.8594 C   0  0  0  0  0  0  0  0  0  0  0  0
   -2.3943   -3.0136    4.8386 C   0  0  0  0  0  0  0  0  0  0  0  0
   -2.3349   -1.9429    5.7346 C   0  0  0  0  0  0  0  0  0  0  0  0
   -3.2665   -0.9037    5.6475 C   0  0  0  0  0  0  0  0  0  0  0  0
   -8.1649    1.3020    2.5556 C   0  0  0  0  0  0  0  0  0  1  0  0
   -8.2916    0.3521    1.4303 C   0  0  0  0  0  0  0  0  0  2  0  0
   -8.0496   -1.0165    1.6359 C   0  0  0  0  0  0  0  0  0  0  0  0
   -8.1541   -1.9190    0.5737 C   0  0  0  0  0  0  0  0  0  0  0  0
   -8.4999   -1.4629   -0.7022 C   0  0  0  0  0  0  0  0  0  0  0  0
   -8.6292   -2.5961   -2.0345 Cl  0  0  0  0  0  0  0  0  0  0  0  0
   -8.7384   -0.1013   -0.9152 C   0  0  0  0  0  0  0  0  0  0  0  0
   -8.6332    0.8038    0.1453 C   0  0  0  0  0  0  0  0  0  0  0  0
   -9.1239    2.2565    2.9608 C   0  0  0  0  0  0  0  0  0  0  0  0
   -8.5413    2.8684    4.0559 C   0  0  0  0  0  0  0  0  0  0  0  0
   -8.8736    3.8998    4.8603 N   0  0  0  0  0  0  0  0  0  0  0  0
  -10.1331    4.6490    4.9357 C   0  0  0  0  0  0  0  0  0  0  0  0
  -10.8639    4.7339    3.5921 C   0  0  0  0  0  0  0  0  0  0  0  0
  -11.3966    3.3687    3.1268 C   0  0  0  0  0  0  0  0  0  0  0  0
  -10.3932    2.6227    2.2453 C   0  0  0  0  0  0  0  0  0  0  0  0
  1  3  4  0
  1 14  4  0
  1  2  1  0
  3  4  4  0
  4  5  4  0
  5  6  4  0
  5 22  1  0
  6  7  1  0
  6 14  4  0
  7  8  1  0
  8  9  4  0
  8 12  4  0
  9 10  4  0
 10 11  4  0
 11 12  4  0
 12 13  1  0
 13 14  1  0
 13 15  1  6
 15 16  4  0
 15 20  4  0
 16 17  4  0
 17 18  4  0
 17 21  1  0
 18 19  4  0
 19 20  4  0
 23 24  4  0
 24 25  4  0
 25 26  1  0
 26 27  2  0
 26 28  1  0
 28 29  1  0
 29 30  4  0
 30 31  4  0
 31 32  4  0
 32 33  4  0
 33 34  4  0
 25 35  4  0
 35 36  1  0
 36 37  4  0
 37 38  4  0
 38 39  4  0
 39 40  1  0
 39 41  4  0
 41 42  4  0
 35 43  4  0
 43 44  4  0
 44 45  4  0
 45 46  1  0
 46 47  1  0
 47 48  1  0
 48 49  1  0
 44 24  4  0
 34 29  4  0
 42 36  4  0
 49 43  1  0
  2 23  4  0
  2 45  4  0
M  END
$$$$

     RDKit          3D

 49 57  0  0  0  0  0  0  0  0999 V2000
   -7.6410    4.9930    6.8080 C   0  0  0  0  0  0  0  0  0  1  0  0
   -7.7310    4.0530    5.7140 C   0  0  0  0  0  0  0  0  0  2  0  0
   -6.4520    5.6300    6.8680 N   0  0  0  0  0  0  0  0  0  0  0  0
   -6.2260    6.5240    7.8670 N   0  0  0  0  0  0  0  0  0  0  0  0
   -7.1930    6.7500    8.7820 C   0  0  0  0  0  0  0  0  0  0  0  0
   -8.4240    6.1170    8.7580 C   0  0  0  0  0  0  0  0  0  0  0  0
   -9.3950    6.3570    9.7450 N   0  0  0  0  0  0  0  0  0  0  0  0
  -10.5620    5.6840    9.7600 C   0  0  0  0  0  0  0  0  0  0  0  0
  -11.5770    5.6820   10.5960 N   0  0  0  0  0  0  0  0  0  0  0  0
  -12.4690    4.7490   10.1080 N   0  0  0  0  0  0  0  0  0  0  0  0
  -12.0160    4.1880    8.9920 N   0  0  0  0  0  0  0  0  0  0  0  0
  -10.8400    4.7900    8.7610 N   0  0  0  0  0  0  0  0  0  0  0  0
   -9.9950    4.4790    7.6090 C   0  0  0  0  0  0  0  0  0  0  0  0
   -8.6630    5.2070    7.7200 C   0  0  0  0  0  0  0  0  0  0  0  0
  -10.7490    4.8610    6.3730 C   0  0  0  0  0  0  0  0  0  0  0  0
  -11.0350    6.2020    6.1170 C   0  0  0  0  0  0  0  0  0  0  0  0
  -11.7370    6.5580    4.9650 C   0  0  0  0  0  0  0  0  0  0  0  0
  -12.1550    5.5730    4.0710 C   0  0  0  0  0  0  0  0  0  0  0  0
  -11.8700    4.2310    4.3270 C   0  0  0  0  0  0  0  0  0  0  0  0
  -11.1660    3.8760    5.4790 C   0  0  0  0  0  0  0  0  0  0  0  0
  -12.0160    7.8660    4.7150 O   0  0  0  0  0  0  0  0  0  0  0  0
   -6.8990    7.6510    9.7710 O   0  0  0  0  0  0  0  0  0  0  0  0
   -6.8455    3.0214    5.3634 C   0  0  0  0  0  0  0  0  0  0  0  0
   -7.3020    2.4496    4.2434 N   0  0  0  0  0  0  0  0  0  0  0  0
   -6.9936    1.5037    3.3438 C   0  0  0  0  0  0  0  0  0  0  0  0
   -5.8356    0.5912    3.4625 C   0  0  0  0  0  0  0  0  0  0  0  0
   -5.9544   -0.9741    2.9853 S   0  0  0  0  0  0  0  0  0  0  0  0
   -4.7029    0.9827    4.2445 N   0  0  0  0  0  0  0  0  0  0  0  0
   -3.7448    1.9681    3.7987 C   0  0  0  0  0  0  0  0  0  0  0  0
   -3.7466    2.4517    2.4752 C   0  0  0  0  0  0  0  0  0  0  0  0
   -2.7661    3.3577    2.0468 C   0  0  0  0  0  0  0  0  0  0  0  0
   -1.7810    3.7969    2.9340 C   0  0  0  0  0  0  0  0  0  0  0  0
   -1.7765    3.3343    4.2544 C   0  0  0  0  0  0  0  0  0  0  0  0
   -2.7520    2.4225    4.6857 C   0  0  0  0  0  0  0  0  0  0  0  0
   -8.0221    1.5114    2.3775 C   0  0  0  0  0  0  0  0  0  1  0  0
   -8.1081    0.6776    1.1605 C   0  0  0  0  0  0  0  0  0  2  0  0
   -7.0530    0.6671    0.2325 C   0  0  0  0  0  0  0  0  0  0  0  0
   -7.1454   -0.0985   -0.9327 C   0  0  0  0  0  0  0  0  0  0  0  0
   -8.2953   -0.8516   -1.1855 C   0  0  0  0  0  0  0  0  0  0  0  0
   -8.4156   -1.7982   -2.6588 Cl  0  0  0  0  0  0  0  0  0  0  0  0
   -9.3535   -0.8403   -0.2695 C   0  0  0  0  0  0  0  0  0  0  0  0
   -9.2597   -0.0839    0.9032 C   0  0  0  0  0  0  0  0  0  0  0  0
   -8.9427    2.5187    2.7422 C   0  0  0  0  0  0  0  0  0  0  0  0
   -8.4291    3.0318    3.9160 C   0  0  0  0  0  0  0  0  0  0  0  0
   -8.8058    4.0046    4.7726 N   0  0  0  0  0  0  0  0  0  0  0  0
   -9.8036    5.0599    4.5569 C   0  0  0  0  0  0  0  0  0  0  0  0
  -11.0315    4.5684    3.7808 C   0  0  0  0  0  0  0  0  0  0  0  0
  -10.7140    4.2799    2.3054 C   0  0  0  0  0  0  0  0  0  0  0  0
  -10.2527    2.8380    2.0772 C   0  0  0  0  0  0  0  0  0  0  0  0
  1  3  4  0
  1 14  4  0
  1  2  1  0
  3  4  4  0
  4  5  4  0
  5  6  4  0
  5 22  1  0
  6  7  1  0
  6 14  4  0
  7  8  1  0
  8  9  4  0
  8 12  4  0
  9 10  4  0
 10 11  4  0
 11 12  4  0
 12 13  1  0
 13 14  1  0
 13 15  1  6
 15 16  4  0
 15 20  4  0
 16 17  4  0
 17 18  4  0
 17 21  1  0
 18 19  4  0
 19 20  4  0
 23 24  4  0
 24 25  4  0
 25 26  1  0
 26 27  2  0
 26 28  1  0
 28 29  1  0
 29 30  4  0
 30 31  4  0
 31 32  4  0
 32 33  4  0
 33 34  4  0
 25 35  4  0
 35 36  1  0
 36 37  4  0
 37 38  4  0
 38 39  4  0
 39 40  1  0
 39 41  4  0
 41 42  4  0
 35 43  4  0
 43 44  4  0
 44 45  4  0
 45 46  1  0
 46 47  1  0
 47 48  1  0
 48 49  1  0
 44 24  4  0
 34 29  4  0
 42 36  4  0
 49 43  1  0
  2 23  4  0
  2 45  4  0
M  END
$$$$

     RDKit          3D

 49 57  0  0  0  0  0  0  0  0999 V2000
   -7.6410    4.9930    6.8080 C   0  0  0  0  0  0  0  0  0  1  0  0
   -7.7310    4.0530    5.7140 C   0  0  0  0  0  0  0  0  0  2  0  0
   -6.4520    5.6300    6.8680 N   0  0  0  0  0  0  0  0  0  0  0  0
   -6.2260    6.5240    7.8670 N   0  0  0  0  0  0  0  0  0  0  0  0
   -7.1930    6.7500    8.7820 C   0  0  0  0  0  0  0  0  0  0  0  0
   -8.4240    6.1170    8.7580 C   0  0  0  0  0  0  0  0  0  0  0  0
   -9.3950    6.3570    9.7450 N   0  0  0  0  0  0  0  0  0  0  0  0
  -10.5620    5.6840    9.7600 C   0  0  0  0  0  0  0  0  0  0  0  0
  -11.5770    5.6820   10.5960 N   0  0  0  0  0  0  0  0  0  0  0  0
  -12.4690    4.7490   10.1080 N   0  0  0  0  0  0  0  0  0  0  0  0
  -12.0160    4.1880    8.9920 N   0  0  0  0  0  0  0  0  0  0  0  0
  -10.8400    4.7900    8.7610 N   0  0  0  0  0  0  0  0  0  0  0  0
   -9.9950    4.4790    7.6090 C   0  0  0  0  0  0  0  0  0  0  0  0
   -8.6630    5.2070    7.7200 C   0  0  0  0  0  0  0  0  0  0  0  0
  -10.7490    4.8610    6.3730 C   0  0  0  0  0  0  0  0  0  0  0  0
  -11.0350    6.2020    6.1170 C   0  0  0  0  0  0  0  0  0  0  0  0
  -11.7370    6.5580    4.9650 C   0  0  0  0  0  0  0  0  0  0  0  0
  -12.1550    5.5730    4.0710 C   0  0  0  0  0  0  0  0  0  0  0  0
  -11.8700    4.2310    4.3270 C   0  0  0  0  0  0  0  0  0  0  0  0
  -11.1660    3.8760    5.4790 C   0  0  0  0  0  0  0  0  0  0  0  0
  -12.0160    7.8660    4.7150 O   0  0  0  0  0  0  0  0  0  0  0  0
   -6.8990    7.6510    9.7710 O   0  0  0  0  0  0  0  0  0  0  0  0
   -6.8163    3.0655    5.3168 C   0  0  0  0  0  0  0  0  0  0  0  0
   -7.3601    2.3654    4.3127 N   0  0  0  0  0  0  0  0  0  0  0  0
   -7.0594    1.4126    3.4147 C   0  0  0  0  0  0  0  0  0  0  0  0
   -5.7622    0.6933    3.3680 C   0  0  0  0  0  0  0  0  0  0  0  0
   -5.3116   -0.1725    2.0451 S   0  0  0  0  0  0  0  0  0  0  0  0
   -4.9405    0.6564    4.5432 N   0  0  0  0  0  0  0  0  0  0  0  0
   -3.5103    0.8064    4.5297 C   0  0  0  0  0  0  0  0  0  0  0  0
   -2.7523    0.2858    5.5905 C   0  0  0  0  0  0  0  0  0  0  0  0
   -1.3630    0.4429    5.6110 C   0  0  0  0  0  0  0  0  0  0  0  0
   -0.7209    1.1345    4.5801 C   0  0  0  0  0  0  0  0  0  0  0  0
   -1.4684    1.6758    3.5302 C   0  0  0  0  0  0  0  0  0  0  0  0
   -2.8576    1.5189    3.5052 C   0  0  0  0  0  0  0  0  0  0  0  0
   -8.1690    1.3243    2.5474 C   0  0  0  0  0  0  0  0  0  1  0  0
   -8.3056    0.4751    1.3553 C   0  0  0  0  0  0  0  0  0  2  0  0
   -8.8656   -0.8059    1.4669 C   0  0  0  0  0  0  0  0  0  0  0  0
   -9.0156   -1.6059    0.3305 C   0  0  0  0  0  0  0  0  0  0  0  0
   -8.6084   -1.1287   -0.9209 C   0  0  0  0  0  0  0  0  0  0  0  0
   -8.7882   -2.1382   -2.3421 Cl  0  0  0  0  0  0  0  0  0  0  0  0
   -8.0545    0.1522   -1.0355 C   0  0  0  0  0  0  0  0  0  0  0  0
   -7.9079    0.9555    0.0992 C   0  0  0  0  0  0  0  0  0  0  0  0
   -9.1363    2.2522    2.9775 C   0  0  0  0  0  0  0  0  0  0  0  0
   -8.5505    2.8577    4.0696 C   0  0  0  0  0  0  0  0  0  0  0  0
   -8.8800    3.8905    4.8719 N   0  0  0  0  0  0  0  0  0  0  0  0
  -10.1353    4.6473    4.9367 C   0  0  0  0  0  0  0  0  0  0  0  0
  -10.8323    4.7677    3.5768 C   0  0  0  0  0  0  0  0  0  0  0  0
  -11.3833    3.4226    3.0768 C   0  0  0  0  0  0  0  0  0  0  0  0
  -10.3715    2.6545    2.2243 C   0  0  0  0  0  0  0  0  0  0  0  0
  1  3  4  0
  1 14  4  0
  1  2  1  0
  3  4  4  0
  4  5  4  0
  5  6  4  0
  5 22  1  0
  6  7  1  0
  6 14  4  0
  7  8  1  0
  8  9  4  0
  8 12  4  0
  9 10  4  0
 10 11  4  0
 11 12  4  0
 12 13  1  0
 13 14  1  0
 13 15  1  6
 15 16  4  0
 15 20  4  0
 16 17  4  0
 17 18  4  0
 17 21  1  0
 18 19  4  0
 19 20  4  0
 23 24  4  0
 24 25  4  0
 25 26  1  0
 26 27  2  0
 26 28  1  0
 28 29  1  0
 29 30  4  0
 30 31  4  0
 31 32  4  0
 32 33  4  0
 33 34  4  0
 25 35  4  0
 35 36  1  0
 36 37  4  0
 37 38  4  0
 38 39  4  0
 39 40  1  0
 39 41  4  0
 41 42  4  0
 35 43  4  0
 43 44  4  0
 44 45  4  0
 45 46  1  0
 46 47  1  0
 47 48  1  0
 48 49  1  0
 44 24  4  0
 34 29  4  0
 42 36  4  0
 49 43  1  0
  2 23  4  0
  2 45  4  0
M  END
$$$$

     RDKit          3D

 49 57  0  0  0  0  0  0  0  0999 V2000
   -7.6410    4.9930    6.8080 C   0  0  0  0  0  0  0  0  0  1  0  0
   -7.7310    4.0530    5.7140 C   0  0  0  0  0  0  0  0  0  2  0  0
   -6.4520    5.6300    6.8680 N   0  0  0  0  0  0  0  0  0  0  0  0
   -6.2260    6.5240    7.8670 N   0  0  0  0  0  0  0  0  0  0  0  0
   -7.1930    6.7500    8.7820 C   0  0  0  0  0  0  0  0  0  0  0  0
   -8.4240    6.1170    8.7580 C   0  0  0  0  0  0  0  0  0  0  0  0
   -9.3950    6.3570    9.7450 N   0  0  0  0  0  0  0  0  0  0  0  0
  -10.5620    5.6840    9.7600 C   0  0  0  0  0  0  0  0  0  0  0  0
  -11.5770    5.6820   10.5960 N   0  0  0  0  0  0  0  0  0  0  0  0
  -12.4690    4.7490   10.1080 N   0  0  0  0  0  0  0  0  0  0  0  0
  -12.0160    4.1880    8.9920 N   0  0  0  0  0  0  0  0  0  0  0  0
  -10.8400    4.7900    8.7610 N   0  0  0  0  0  0  0  0  0  0  0  0
   -9.9950    4.4790    7.6090 C   0  0  0  0  0  0  0  0  0  0  0  0
   -8.6630    5.2070    7.7200 C   0  0  0  0  0  0  0  0  0  0  0  0
  -10.7490    4.8610    6.3730 C   0  0  0  0  0  0  0  0  0  0  0  0
  -11.0350    6.2020    6.1170 C   0  0  0  0  0  0  0  0  0  0  0  0
  -11.7370    6.5580    4.9650 C   0  0  0  0  0  0  0  0  0  0  0  0
  -12.1550    5.5730    4.0710 C   0  0  0  0  0  0  0  0  0  0  0  0
  -11.8700    4.2310    4.3270 C   0  0  0  0  0  0  0  0  0  0  0  0
  -11.1660    3.8760    5.4790 C   0  0  0  0  0  0  0  0  0  0  0  0
  -12.0160    7.8660    4.7150 O   0  0  0  0  0  0  0  0  0  0  0  0
   -6.8990    7.6510    9.7710 O   0  0  0  0  0  0  0  0  0  0  0  0
   -6.8204    3.0593    5.3087 C   0  0  0  0  0  0  0  0  0  0  0  0
   -7.3484    2.4059    4.2629 N   0  0  0  0  0  0  0  0  0  0  0  0
   -6.9847    1.6341    3.2272 C   0  0  0  0  0  0  0  0  0  0  0  0
   -5.6734    0.9735    3.0830 C   0  0  0  0  0  0  0  0  0  0  0  0
   -4.3153    1.8543    3.3639 S   0  0  0  0  0  0  0  0  0  0  0  0
   -5.6023   -0.3428    2.5027 N   0  0  0  0  0  0  0  0  0  0  0  0
   -4.4003   -1.1184    2.3779 C   0  0  0  0  0  0  0  0  0  0  0  0
   -4.1465   -1.8082    1.1829 C   0  0  0  0  0  0  0  0  0  0  0  0
   -2.9982   -2.5956    1.0531 C   0  0  0  0  0  0  0  0  0  0  0  0
   -2.1056   -2.7135    2.1222 C   0  0  0  0  0  0  0  0  0  0  0  0
   -2.3644   -2.0502    3.3249 C   0  0  0  0  0  0  0  0  0  0  0  0
   -3.5113   -1.2615    3.4576 C   0  0  0  0  0  0  0  0  0  0  0  0
   -8.0337    1.6874    2.2829 C   0  0  0  0  0  0  0  0  0  1  0  0
   -8.0092    1.1523    0.9059 C   0  0  0  0  0  0  0  0  0  2  0  0
   -9.1094    0.4328    0.4132 C   0  0  0  0  0  0  0  0  0  0  0  0
   -9.0845   -0.0953   -0.8809 C   0  0  0  0  0  0  0  0  0  0  0  0
   -7.9624    0.0939   -1.6938 C   0  0  0  0  0  0  0  0  0  0  0  0
   -7.9312   -0.5717   -3.3160 Cl  0  0  0  0  0  0  0  0  0  0  0  0
   -6.8667    0.8173   -1.2128 C   0  0  0  0  0  0  0  0  0  0  0  0
   -6.8892    1.3471    0.0805 C   0  0  0  0  0  0  0  0  0  0  0  0
   -9.0326    2.5302    2.8151 C   0  0  0  0  0  0  0  0  0  0  0  0
   -8.5329    2.9083    4.0317 C   0  0  0  0  0  0  0  0  0  0  0  0
   -8.8611    3.9198    4.8459 N   0  0  0  0  0  0  0  0  0  0  0  0
  -10.0511    4.7647    4.7124 C   0  0  0  0  0  0  0  0  0  0  0  0
  -10.0690    5.5585    3.3881 C   0  0  0  0  0  0  0  0  0  0  0  0
   -9.8029    4.7790    2.0708 C   0  0  0  0  0  0  0  0  0  0  0  0
  -10.1240    3.2726    2.0988 C   0  0  0  0  0  0  0  0  0  0  0  0
  1  3  4  0
  1 14  4  0
  1  2  1  0
  3  4  4  0
  4  5  4  0
  5  6  4  0
  5 22  1  0
  6  7  1  0
  6 14  4  0
  7  8  1  0
  8  9  4  0
  8 12  4  0
  9 10  4  0
 10 11  4  0
 11 12  4  0
 12 13  1  0
 13 14  1  0
 13 15  1  6
 15 16  4  0
 15 20  4  0
 16 17  4  0
 17 18  4  0
 17 21  1  0
 18 19  4  0
 19 20  4  0
 23 24  4  0
 24 25  4  0
 25 26  1  0
 26 27  2  0
 26 28  1  0
 28 29  1  0
 29 30  4  0
 30 31  4  0
 31 32  4  0
 32 33  4  0
 33 34  4  0
 25 35  4  0
 35 36  1  0
 36 37  4  0
 37 38  4  0
 38 39  4  0
 39 40  1  0
 39 41  4  0
 41 42  4  0
 35 43  4  0
 43 44  4  0
 44 45  4  0
 45 46  1  0
 46 47  1  0
 47 48  1  0
 48 49  1  0
 44 24  4  0
 34 29  4  0
 42 36  4  0
 49 43  1  0
  2 23  4  0
  2 45  4  0
M  END
$$$$

     RDKit          3D

 31 35  0  0  0  0  0  0  0  0999 V2000
   -7.6410    4.9930    6.8080 C   0  0  0  0  0  0  0  0  0  1  0  0
   -7.7310    4.0530    5.7140 C   0  0  0  0  0  0  0  0  0  2  0  0
   -6.4520    5.6300    6.8680 N   0  0  0  0  0  0  0  0  0  0  0  0
   -6.2260    6.5240    7.8670 N   0  0  0  0  0  0  0  0  0  0  0  0
   -7.1930    6.7500    8.7820 C   0  0  0  0  0  0  0  0  0  0  0  0
   -8.4240    6.1170    8.7580 C   0  0  0  0  0  0  0  0  0  0  0  0
   -9.3950    6.3570    9.7450 N   0  0  0  0  0  0  0  0  0  0  0  0
  -10.5620    5.6840    9.7600 C   0  0  0  0  0  0  0  0  0  0  0  0
  -11.5770    5.6820   10.5960 N   0  0  0  0  0  0  0  0  0  0  0  0
  -12.4690    4.7490   10.1080 N   0  0  0  0  0  0  0  0  0  0  0  0
  -12.0160    4.1880    8.9920 N   0  0  0  0  0  0  0  0  0  0  0  0
  -10.8400    4.7900    8.7610 N   0  0  0  0  0  0  0  0  0  0  0  0
   -9.9950    4.4790    7.6090 C   0  0  0  0  0  0  0  0  0  0  0  0
   -8.6630    5.2070    7.7200 C   0  0  0  0  0  0  0  0  0  0  0  0
  -10.7490    4.8610    6.3730 C   0  0  0  0  0  0  0  0  0  0  0  0
  -11.0350    6.2020    6.1170 C   0  0  0  0  0  0  0  0  0  0  0  0
  -11.7370    6.5580    4.9650 C   0  0  0  0  0  0  0  0  0  0  0  0
  -12.1550    5.5730    4.0710 C   0  0  0  0  0  0  0  0  0  0  0  0
  -11.8700    4.2310    4.3270 C   0  0  0  0  0  0  0  0  0  0  0  0
  -11.1660    3.8760    5.4790 C   0  0  0  0  0  0  0  0  0  0  0  0
  -12.0160    7.8660    4.7150 O   0  0  0  0  0  0  0  0  0  0  0  0
   -6.8990    7.6510    9.7710 O   0  0  0  0  0  0  0  0  0  0  0  0
   -6.9154    2.9158    5.5962 C   0  0  0  0  0  0  0  0  0  0  0  0
   -7.0756    1.9585    4.5996 C   0  0  0  0  0  0  0  0  0  0  0  0
   -8.1290    2.0756    3.6771 C   0  0  0  0  0  0  0  0  0  0  0  0
   -8.3206    1.0761    2.6432 N   0  0  0  0  0  0  0  0  0  0  0  0
   -9.6380    0.8921    2.0248 C   0  0  0  0  0  0  0  0  0  0  0  0
   -7.2032    0.2333    2.2006 C   0  0  0  0  0  0  0  0  0  0  0  0
   -8.9737    3.1488    3.7722 N   0  0  0  0  0  0  0  0  0  0  0  0
   -8.8279    4.1147    4.7287 C   0  0  0  0  0  0  0  0  0  0  0  0
   -9.7842    5.2796    4.7433 C   0  0  0  0  0  0  0  0  0  0  0  0
  1  3  4  0
  1 14  4  0
  1  2  1  0
  3  4  4  0
  4  5  4  0
  5  6  4  0
  5 22  1  0
  6  7  1  0
  6 14  4  0
  7  8  1  0
  8  9  4  0
  8 12  4  0
  9 10  4  0
 10 11  4  0
 11 12  4  0
 12 13  1  0
 13 14  1  0
 13 15  1  6
 15 16  4  0
 15 20  4  0
 16 17  4  0
 17 18  4  0
 17 21  1  0
 18 19  4  0
 19 20  4  0
 23 24  4  0
 24 25  4  0
 25 26  1  0
 26 27  1  0
 26 28  1  0
 25 29  4  0
 29 30  4  0
 30 31  1  0
  2 23  4  0
  2 30  4  0
M  CHG  1  29   1
M  END
$$$$

     RDKit          3D

 31 35  0  0  0  0  0  0  0  0999 V2000
   -7.6410    4.9930    6.8080 C   0  0  0  0  0  0  0  0  0  1  0  0
   -7.7310    4.0530    5.7140 C   0  0  0  0  0  0  0  0  0  2  0  0
   -6.4520    5.6300    6.8680 N   0  0  0  0  0  0  0  0  0  0  0  0
   -6.2260    6.5240    7.8670 N   0  0  0  0  0  0  0  0  0  0  0  0
   -7.1930    6.7500    8.7820 C   0  0  0  0  0  0  0  0  0  0  0  0
   -8.4240    6.1170    8.7580 C   0  0  0  0  0  0  0  0  0  0  0  0
   -9.3950    6.3570    9.7450 N   0  0  0  0  0  0  0  0  0  0  0  0
  -10.5620    5.6840    9.7600 C   0  0  0  0  0  0  0  0  0  0  0  0
  -11.5770    5.6820   10.5960 N   0  0  0  0  0  0  0  0  0  0  0  0
  -12.4690    4.7490   10.1080 N   0  0  0  0  0  0  0  0  0  0  0  0
  -12.0160    4.1880    8.9920 N   0  0  0  0  0  0  0  0  0  0  0  0
  -10.8400    4.7900    8.7610 N   0  0  0  0  0  0  0  0  0  0  0  0
   -9.9950    4.4790    7.6090 C   0  0  0  0  0  0  0  0  0  0  0  0
   -8.6630    5.2070    7.7200 C   0  0  0  0  0  0  0  0  0  0  0  0
  -10.7490    4.8610    6.3730 C   0  0  0  0  0  0  0  0  0  0  0  0
  -11.0350    6.2020    6.1170 C   0  0  0  0  0  0  0  0  0  0  0  0
  -11.7370    6.5580    4.9650 C   0  0  0  0  0  0  0  0  0  0  0  0
  -12.1550    5.5730    4.0710 C   0  0  0  0  0  0  0  0  0  0  0  0
  -11.8700    4.2310    4.3270 C   0  0  0  0  0  0  0  0  0  0  0  0
  -11.1660    3.8760    5.4790 C   0  0  0  0  0  0  0  0  0  0  0  0
  -12.0160    7.8660    4.7150 O   0  0  0  0  0  0  0  0  0  0  0  0
   -6.8990    7.6510    9.7710 O   0  0  0  0  0  0  0  0  0  0  0  0
   -6.9150    2.9161    5.5983 C   0  0  0  0  0  0  0  0  0  0  0  0
   -7.0692    1.9615    4.5982 C   0  0  0  0  0  0  0  0  0  0  0  0
   -8.1162    2.0822    3.6684 C   0  0  0  0  0  0  0  0  0  0  0  0
   -8.2971    1.0890    2.6263 N   0  0  0  0  0  0  0  0  0  0  0  0
   -7.1778    0.2412    2.1976 C   0  0  0  0  0  0  0  0  0  0  0  0
   -9.6077    0.9102    1.9922 C   0  0  0  0  0  0  0  0  0  0  0  0
   -8.9630    3.1543    3.7636 N   0  0  0  0  0  0  0  0  0  0  0  0
   -8.8233    4.1168    4.7245 C   0  0  0  0  0  0  0  0  0  0  0  0
   -9.7801    5.2808    4.7383 C   0  0  0  0  0  0  0  0  0  0  0  0
  1  3  4  0
  1 14  4  0
  1  2  1  0
  3  4  4  0
  4  5  4  0
  5  6  4  0
  5 22  1  0
  6  7  1  0
  6 14  4  0
  7  8  1  0
  8  9  4  0
  8 12  4  0
  9 10  4  0
 10 11  4  0
 11 12  4  0
 12 13  1  0
 13 14  1  0
 13 15  1  6
 15 16  4  0
 15 20  4  0
 16 17  4  0
 17 18  4  0
 17 21  1  0
 18 19  4  0
 19 20  4  0
 23 24  4  0
 24 25  4  0
 25 26  1  0
 26 27  1  0
 26 28  1  0
 25 29  4  0
 29 30  4  0
 30 31  1  0
  2 23  4  0
  2 30  4  0
M  CHG  1  29   1
M  END
$$$$

     RDKit          3D

 41 46  0  0  0  0  0  0  0  0999 V2000
   -7.6410    4.9930    6.8080 C   0  0  0  0  0  0  0  0  0  1  0  0
   -7.7310    4.0530    5.7140 C   0  0  0  0  0  0  0  0  0  2  0  0
   -6.4520    5.6300    6.8680 N   0  0  0  0  0  0  0  0  0  0  0  0
   -6.2260    6.5240    7.8670 N   0  0  0  0  0  0  0  0  0  0  0  0
   -7.1930    6.7500    8.7820 C   0  0  0  0  0  0  0  0  0  0  0  0
   -8.4240    6.1170    8.7580 C   0  0  0  0  0  0  0  0  0  0  0  0
   -9.3950    6.3570    9.7450 N   0  0  0  0  0  0  0  0  0  0  0  0
  -10.5620    5.6840    9.7600 C   0  0  0  0  0  0  0  0  0  0  0  0
  -11.5770    5.6820   10.5960 N   0  0  0  0  0  0  0  0  0  0  0  0
  -12.4690    4.7490   10.1080 N   0  0  0  0  0  0  0  0  0  0  0  0
  -12.0160    4.1880    8.9920 N   0  0  0  0  0  0  0  0  0  0  0  0
  -10.8400    4.7900    8.7610 N   0  0  0  0  0  0  0  0  0  0  0  0
   -9.9950    4.4790    7.6090 C   0  0  0  0  0  0  0  0  0  0  0  0
   -8.6630    5.2070    7.7200 C   0  0  0  0  0  0  0  0  0  0  0  0
  -10.7490    4.8610    6.3730 C   0  0  0  0  0  0  0  0  0  0  0  0
  -11.0350    6.2020    6.1170 C   0  0  0  0  0  0  0  0  0  0  0  0
  -11.7370    6.5580    4.9650 C   0  0  0  0  0  0  0  0  0  0  0  0
  -12.1550    5.5730    4.0710 C   0  0  0  0  0  0  0  0  0  0  0  0
  -11.8700    4.2310    4.3270 C   0  0  0  0  0  0  0  0  0  0  0  0
  -11.1660    3.8760    5.4790 C   0  0  0  0  0  0  0  0  0  0  0  0
  -12.0160    7.8660    4.7150 O   0  0  0  0  0  0  0  0  0  0  0  0
   -6.8990    7.6510    9.7710 O   0  0  0  0  0  0  0  0  0  0  0  0
   -7.0452    2.8031    5.6740 C   0  0  0  0  0  0  0  0  0  0  0  0
   -6.1247    2.5147    6.7547 C   0  0  0  0  0  0  0  0  0  0  0  0
   -5.3899    2.2861    7.6192 N   0  0  0  0  0  0  0  0  0  0  0  0
   -7.2168    1.8813    4.6169 C   0  0  0  0  0  0  0  0  0  0  0  0
   -6.4375    0.6675    4.5888 N   0  0  0  0  0  0  0  0  0  0  0  0
   -8.1178    2.1537    3.6132 N   0  0  0  0  0  0  0  0  0  0  0  0
   -8.3247    1.2096    2.5459 C   0  0  0  0  0  0  0  0  0  0  0  0
   -9.1116    0.0691    2.7569 C   0  0  0  0  0  0  0  0  0  0  0  0
   -9.3157   -0.8469    1.7206 C   0  0  0  0  0  0  0  0  0  0  0  0
   -8.7345   -0.6285    0.4560 C   0  0  0  0  0  0  0  0  0  0  0  0
   -8.9086   -1.5169   -0.6155 O   0  0  0  0  0  0  0  0  0  0  0  0
   -9.6750   -2.7152   -0.5494 C   0  0  0  0  0  0  0  0  0  0  0  0
   -7.9527    0.5152    0.2515 C   0  0  0  0  0  0  0  0  0  0  0  0
   -7.7487    1.4306    1.2878 C   0  0  0  0  0  0  0  0  0  0  0  0
   -8.8464    3.3149    3.6106 C   0  0  0  0  0  0  0  0  0  0  0  0
   -9.6677    3.5448    2.6769 O   0  0  0  0  0  0  0  0  0  0  0  0
   -8.6948    4.2555    4.6393 C   0  0  0  0  0  0  0  0  0  0  0  0
   -9.4566    5.4870    4.6001 C   0  0  0  0  0  0  0  0  0  0  0  0
  -10.0648    6.4712    4.5695 N   0  0  0  0  0  0  0  0  0  0  0  0
  1  3  4  0
  1 14  4  0
  1  2  1  0
  3  4  4  0
  4  5  4  0
  5  6  4  0
  5 22  1  0
  6  7  1  0
  6 14  4  0
  7  8  1  0
  8  9  4  0
  8 12  4  0
  9 10  4  0
 10 11  4  0
 11 12  4  0
 12 13  1  0
 13 14  1  0
 13 15  1  6
 15 16  4  0
 15 20  4  0
 16 17  4  0
 17 18  4  0
 17 21  1  0
 18 19  4  0
 19 20  4  0
 23 24  1  0
 24 25  3  0
 23 26  4  0
 26 27  1  0
 26 28  4  0
 28 29  1  0
 29 30  4  0
 30 31  4  0
 31 32  4  0
 32 33  1  0
 33 34  1  0
 32 35  4  0
 35 36  4  0
 28 37  4  0
 37 38  2  0
 37 39  4  0
 39 40  1  0
 40 41  3  0
 36 29  4  0
  2 23  4  0
  2 39  4  0
M  END
$$$$

     RDKit          3D

 35 40  0  0  0  0  0  0  0  0999 V2000
   -7.6410    4.9930    6.8080 C   0  0  0  0  0  0  0  0  0  1  0  0
   -7.7310    4.0530    5.7140 C   0  0  0  0  0  0  0  0  0  2  0  0
   -6.4520    5.6300    6.8680 N   0  0  0  0  0  0  0  0  0  0  0  0
   -6.2260    6.5240    7.8670 N   0  0  0  0  0  0  0  0  0  0  0  0
   -7.1930    6.7500    8.7820 C   0  0  0  0  0  0  0  0  0  0  0  0
   -8.4240    6.1170    8.7580 C   0  0  0  0  0  0  0  0  0  0  0  0
   -9.3950    6.3570    9.7450 N   0  0  0  0  0  0  0  0  0  0  0  0
  -10.5620    5.6840    9.7600 C   0  0  0  0  0  0  0  0  0  0  0  0
  -11.5770    5.6820   10.5960 N   0  0  0  0  0  0  0  0  0  0  0  0
  -12.4690    4.7490   10.1080 N   0  0  0  0  0  0  0  0  0  0  0  0
  -12.0160    4.1880    8.9920 N   0  0  0  0  0  0  0  0  0  0  0  0
  -10.8400    4.7900    8.7610 N   0  0  0  0  0  0  0  0  0  0  0  0
   -9.9950    4.4790    7.6090 C   0  0  0  0  0  0  0  0  0  0  0  0
   -8.6630    5.2070    7.7200 C   0  0  0  0  0  0  0  0  0  0  0  0
  -10.7490    4.8610    6.3730 C   0  0  0  0  0  0  0  0  0  0  0  0
  -11.0350    6.2020    6.1170 C   0  0  0  0  0  0  0  0  0  0  0  0
  -11.7370    6.5580    4.9650 C   0  0  0  0  0  0  0  0  0  0  0  0
  -12.1550    5.5730    4.0710 C   0  0  0  0  0  0  0  0  0  0  0  0
  -11.8700    4.2310    4.3270 C   0  0  0  0  0  0  0  0  0  0  0  0
  -11.1660    3.8760    5.4790 C   0  0  0  0  0  0  0  0  0  0  0  0
  -12.0160    7.8660    4.7150 O   0  0  0  0  0  0  0  0  0  0  0  0
   -6.8990    7.6510    9.7710 O   0  0  0  0  0  0  0  0  0  0  0  0
   -6.9123    2.9752    5.4100 C   0  0  0  0  0  0  0  0  0  0  0  0
   -7.3489    2.3043    4.3257 N   0  0  0  0  0  0  0  0  0  0  0  0
   -8.4751    2.9522    3.9611 C   0  0  0  0  0  0  0  0  0  0  0  0
   -8.7647    3.9968    4.7646 N   0  0  0  0  0  0  0  0  0  0  0  0
   -9.8327    4.9775    4.5308 C   0  0  0  0  0  0  0  0  0  0  0  0
   -9.4877    5.9386    3.3628 C   0  0  0  0  0  0  0  0  0  0  0  0
  -10.7479    6.7350    2.9590 C   0  0  0  0  0  0  0  0  0  0  0  0
   -8.2934    6.7940    3.6573 N   0  0  0  0  0  0  0  0  0  0  0  0
   -8.5337    7.8309    4.6997 C   0  0  0  0  0  0  0  0  0  0  0  0
   -7.3704    8.8452    4.8331 C   0  0  0  0  0  0  0  0  0  0  0  0
   -6.0856    8.3657    4.1500 C   0  0  0  0  0  0  0  0  0  0  0  0
   -6.3325    8.0035    2.6744 C   0  0  0  0  0  0  0  0  0  0  0  0
   -7.7430    7.4172    2.4278 C   0  0  0  0  0  0  0  0  0  0  0  0
  1  3  4  0
  1 14  4  0
  1  2  1  0
  3  4  4  0
  4  5  4  0
  5  6  4  0
  5 22  1  0
  6  7  1  0
  6 14  4  0
  7  8  1  0
  8  9  4  0
  8 12  4  0
  9 10  4  0
 10 11  4  0
 11 12  4  0
 12 13  1  0
 13 14  1  0
 13 15  1  6
 15 16  4  0
 15 20  4  0
 16 17  4  0
 17 18  4  0
 17 21  1  0
 18 19  4  0
 19 20  4  0
 23 24  4  0
 24 25  4  0
 25 26  4  0
 26 27  1  0
 27 28  1  0
 28 29  1  0
 28 30  1  0
 30 31  1  0
 31 32  1  0
 32 33  1  0
 33 34  1  0
 34 35  1  0
 35 30  1  0
  2 23  4  0
  2 26  4  0
M  CHG  1  30   1
M  END
$$$$

     RDKit          3D

 38 43  0  0  0  0  0  0  0  0999 V2000
   -7.6410    4.9930    6.8080 C   0  0  0  0  0  0  0  0  0  1  0  0
   -7.7310    4.0530    5.7140 C   0  0  0  0  0  0  0  0  0  2  0  0
   -6.4520    5.6300    6.8680 N   0  0  0  0  0  0  0  0  0  0  0  0
   -6.2260    6.5240    7.8670 N   0  0  0  0  0  0  0  0  0  0  0  0
   -7.1930    6.7500    8.7820 C   0  0  0  0  0  0  0  0  0  0  0  0
   -8.4240    6.1170    8.7580 C   0  0  0  0  0  0  0  0  0  0  0  0
   -9.3950    6.3570    9.7450 N   0  0  0  0  0  0  0  0  0  0  0  0
  -10.5620    5.6840    9.7600 C   0  0  0  0  0  0  0  0  0  0  0  0
  -11.5770    5.6820   10.5960 N   0  0  0  0  0  0  0  0  0  0  0  0
  -12.4690    4.7490   10.1080 N   0  0  0  0  0  0  0  0  0  0  0  0
  -12.0160    4.1880    8.9920 N   0  0  0  0  0  0  0  0  0  0  0  0
  -10.8400    4.7900    8.7610 N   0  0  0  0  0  0  0  0  0  0  0  0
   -9.9950    4.4790    7.6090 C   0  0  0  0  0  0  0  0  0  0  0  0
   -8.6630    5.2070    7.7200 C   0  0  0  0  0  0  0  0  0  0  0  0
  -10.7490    4.8610    6.3730 C   0  0  0  0  0  0  0  0  0  0  0  0
  -11.0350    6.2020    6.1170 C   0  0  0  0  0  0  0  0  0  0  0  0
  -11.7370    6.5580    4.9650 C   0  0  0  0  0  0  0  0  0  0  0  0
  -12.1550    5.5730    4.0710 C   0  0  0  0  0  0  0  0  0  0  0  0
  -11.8700    4.2310    4.3270 C   0  0  0  0  0  0  0  0  0  0  0  0
  -11.1660    3.8760    5.4790 C   0  0  0  0  0  0  0  0  0  0  0  0
  -12.0160    7.8660    4.7150 O   0  0  0  0  0  0  0  0  0  0  0  0
   -6.8990    7.6510    9.7710 O   0  0  0  0  0  0  0  0  0  0  0  0
   -6.8302    3.0544    5.3512 C   0  0  0  0  0  0  0  0  0  0  0  0
   -7.0604    2.0913    4.3736 C   0  0  0  0  0  0  0  0  0  0  0  0
   -8.2836    2.0373    3.7026 C   0  0  0  0  0  0  0  0  0  0  0  0
   -8.4771    1.0189    2.7647 O   0  0  0  0  0  0  0  0  0  0  0  0
   -9.3441   -0.0838    3.0193 C   0  0  0  0  0  0  0  0  0  0  0  0
   -9.1853   -1.1254    1.9023 C   0  0  0  0  0  0  0  0  0  0  0  0
  -10.2373   -2.1722    1.9379 N   0  0  0  0  0  0  0  0  0  0  0  0
  -10.2329   -2.9053    3.2382 C   0  0  0  0  0  0  0  0  0  0  0  0
  -10.8479   -4.3047    3.1208 C   0  0  0  0  0  0  0  0  0  0  0  0
  -10.0480   -5.1801    2.1407 C   0  0  0  0  0  0  0  0  0  0  0  0
   -9.3369   -4.3527    1.0558 C   0  0  0  0  0  0  0  0  0  0  0  0
  -10.1191   -3.0680    0.7497 C   0  0  0  0  0  0  0  0  0  0  0  0
   -9.2826    2.9996    3.9769 C   0  0  0  0  0  0  0  0  0  0  0  0
  -10.5498    3.0379    3.1594 C   0  0  0  0  0  0  0  0  0  0  0  0
   -9.0668    3.9447    5.0111 C   0  0  0  0  0  0  0  0  0  0  0  0
  -10.0590    4.8596    5.3789 O   0  0  0  0  0  0  0  0  0  0  0  0
  1  3  4  0
  1 14  4  0
  1  2  1  0
  3  4  4  0
  4  5  4  0
  5  6  4  0
  5 22  1  0
  6  7  1  0
  6 14  4  0
  7  8  1  0
  8  9  4  0
  8 12  4  0
  9 10  4  0
 10 11  4  0
 11 12  4  0
 12 13  1  0
 13 14  1  0
 13 15  1  6
 15 16  4  0
 15 20  4  0
 16 17  4  0
 17 18  4  0
 17 21  1  0
 18 19  4  0
 19 20  4  0
 23 24  4  0
 24 25  4  0
 25 26  1  0
 26 27  1  0
 27 28  1  0
 28 29  1  0
 29 30  1  0
 30 31  1  0
 31 32  1  0
 32 33  1  0
 33 34  1  0
 25 35  4  0
 35 36  1  0
 35 37  4  0
 37 38  1  0
 34 29  1  0
  2 23  4  0
  2 37  4  0
M  CHG  1  29   1
M  END
$$$$

     RDKit          3D

 31 36  0  0  0  0  0  0  0  0999 V2000
   -7.6410    4.9930    6.8080 C   0  0  0  0  0  0  0  0  0  1  0  0
   -7.7310    4.0530    5.7140 C   0  0  0  0  0  0  0  0  0  2  0  0
   -6.4520    5.6300    6.8680 N   0  0  0  0  0  0  0  0  0  0  0  0
   -6.2260    6.5240    7.8670 N   0  0  0  0  0  0  0  0  0  0  0  0
   -7.1930    6.7500    8.7820 C   0  0  0  0  0  0  0  0  0  0  0  0
   -8.4240    6.1170    8.7580 C   0  0  0  0  0  0  0  0  0  0  0  0
   -9.3950    6.3570    9.7450 N   0  0  0  0  0  0  0  0  0  0  0  0
  -10.5620    5.6840    9.7600 C   0  0  0  0  0  0  0  0  0  0  0  0
  -11.5770    5.6820   10.5960 N   0  0  0  0  0  0  0  0  0  0  0  0
  -12.4690    4.7490   10.1080 N   0  0  0  0  0  0  0  0  0  0  0  0
  -12.0160    4.1880    8.9920 N   0  0  0  0  0  0  0  0  0  0  0  0
  -10.8400    4.7900    8.7610 N   0  0  0  0  0  0  0  0  0  0  0  0
   -9.9950    4.4790    7.6090 C   0  0  0  0  0  0  0  0  0  0  0  0
   -8.6630    5.2070    7.7200 C   0  0  0  0  0  0  0  0  0  0  0  0
  -10.7490    4.8610    6.3730 C   0  0  0  0  0  0  0  0  0  0  0  0
  -11.0350    6.2020    6.1170 C   0  0  0  0  0  0  0  0  0  0  0  0
  -11.7370    6.5580    4.9650 C   0  0  0  0  0  0  0  0  0  0  0  0
  -12.1550    5.5730    4.0710 C   0  0  0  0  0  0  0  0  0  0  0  0
  -11.8700    4.2310    4.3270 C   0  0  0  0  0  0  0  0  0  0  0  0
  -11.1660    3.8760    5.4790 C   0  0  0  0  0  0  0  0  0  0  0  0
  -12.0160    7.8660    4.7150 O   0  0  0  0  0  0  0  0  0  0  0  0
   -6.8990    7.6510    9.7710 O   0  0  0  0  0  0  0  0  0  0  0  0
   -6.8367    3.0396    5.4775 N   0  0  0  0  0  0  0  0  0  0  0  0
   -6.9486    2.1453    4.4462 C   0  0  0  0  0  0  0  0  0  0  0  0
   -6.0659    1.2635    4.2773 O   0  0  0  0  0  0  0  0  0  0  0  0
   -8.0095    2.2087    3.5931 N   0  0  0  0  0  0  0  0  0  0  0  0
   -8.9557    3.1565    3.7930 C   0  0  0  0  0  0  0  0  0  0  0  0
   -8.8791    4.0514    4.8137 C   0  0  0  0  0  0  0  0  0  0  0  0
  -10.0050    5.0294    4.7148 C   0  0  0  0  0  0  0  0  0  0  0  0
  -10.7736    4.5653    3.4496 C   0  0  0  0  0  0  0  0  0  0  0  0
  -10.0601    3.3929    2.9511 N   0  0  0  0  0  0  0  0  0  0  0  0
  1  3  4  0
  1 14  4  0
  1  2  1  0
  3  4  4  0
  4  5  4  0
  5  6  4  0
  5 22  1  0
  6  7  1  0
  6 14  4  0
  7  8  1  0
  8  9  4  0
  8 12  4  0
  9 10  4  0
 10 11  4  0
 11 12  4  0
 12 13  1  0
 13 14  1  0
 13 15  1  6
 15 16  4  0
 15 20  4  0
 16 17  4  0
 17 18  4  0
 17 21  1  0
 18 19  4  0
 19 20  4  0
 23 24  4  0
 24 25  2  0
 24 26  4  0
 26 27  4  0
 27 28  4  0
 28 29  1  0
 29 30  1  0
 30 31  1  0
 31 27  1  0
  2 23  4  0
  2 28  4  0
M  END
$$$$

     RDKit          3D

 40 46  0  0  0  0  0  0  0  0999 V2000
   -7.6410    4.9930    6.8080 C   0  0  0  0  0  0  0  0  0  1  0  0
   -7.7310    4.0530    5.7140 C   0  0  0  0  0  0  0  0  0  2  0  0
   -6.4520    5.6300    6.8680 N   0  0  0  0  0  0  0  0  0  0  0  0
   -6.2260    6.5240    7.8670 N   0  0  0  0  0  0  0  0  0  0  0  0
   -7.1930    6.7500    8.7820 C   0  0  0  0  0  0  0  0  0  0  0  0
   -8.4240    6.1170    8.7580 C   0  0  0  0  0  0  0  0  0  0  0  0
   -9.3950    6.3570    9.7450 N   0  0  0  0  0  0  0  0  0  0  0  0
  -10.5620    5.6840    9.7600 C   0  0  0  0  0  0  0  0  0  0  0  0
  -11.5770    5.6820   10.5960 N   0  0  0  0  0  0  0  0  0  0  0  0
  -12.4690    4.7490   10.1080 N   0  0  0  0  0  0  0  0  0  0  0  0
  -12.0160    4.1880    8.9920 N   0  0  0  0  0  0  0  0  0  0  0  0
  -10.8400    4.7900    8.7610 N   0  0  0  0  0  0  0  0  0  0  0  0
   -9.9950    4.4790    7.6090 C   0  0  0  0  0  0  0  0  0  0  0  0
   -8.6630    5.2070    7.7200 C   0  0  0  0  0  0  0  0  0  0  0  0
  -10.7490    4.8610    6.3730 C   0  0  0  0  0  0  0  0  0  0  0  0
  -11.0350    6.2020    6.1170 C   0  0  0  0  0  0  0  0  0  0  0  0
  -11.7370    6.5580    4.9650 C   0  0  0  0  0  0  0  0  0  0  0  0
  -12.1550    5.5730    4.0710 C   0  0  0  0  0  0  0  0  0  0  0  0
  -11.8700    4.2310    4.3270 C   0  0  0  0  0  0  0  0  0  0  0  0
  -11.1660    3.8760    5.4790 C   0  0  0  0  0  0  0  0  0  0  0  0
  -12.0160    7.8660    4.7150 O   0  0  0  0  0  0  0  0  0  0  0  0
   -6.8990    7.6510    9.7710 O   0  0  0  0  0  0  0  0  0  0  0  0
   -6.8996    2.9368    5.5154 C   0  0  0  0  0  0  0  0  0  0  0  0
   -7.4150    1.9808    4.2207 S   0  0  0  0  0  0  0  0  0  0  0  0
   -8.7503    2.9287    3.8731 C   0  0  0  0  0  0  0  0  0  0  0  0
   -9.6403    2.7302    2.8773 N   0  0  0  0  0  0  0  0  0  0  0  0
  -10.6562    3.6195    2.7112 C   0  0  0  0  0  0  0  0  0  0  0  0
  -10.7745    4.7175    3.5297 N   0  0  0  0  0  0  0  0  0  0  0  0
  -11.8685    5.6692    3.2711 C   0  0  0  0  0  0  0  0  0  0  0  0
  -11.5216    6.5675    2.1023 C   0  0  0  0  0  0  0  0  0  0  0  0
  -10.5499    7.5676    2.2865 C   0  0  0  0  0  0  0  0  0  0  0  0
  -10.1895    8.4128    1.2349 C   0  0  0  0  0  0  0  0  0  0  0  0
  -10.7928    8.2718   -0.0145 C   0  0  0  0  0  0  0  0  0  0  0  0
  -11.7587    7.2845   -0.2172 C   0  0  0  0  0  0  0  0  0  0  0  0
  -12.1300    6.4287    0.8299 C   0  0  0  0  0  0  0  0  0  0  0  0
  -13.1257    5.4176    0.5666 C   0  0  0  0  0  0  0  0  0  0  0  0
  -13.9238    4.6068    0.3548 N   0  0  0  0  0  0  0  0  0  0  0  0
   -9.8617    4.9308    4.5394 C   0  0  0  0  0  0  0  0  0  0  0  0
   -9.9384    5.9589    5.2657 O   0  0  0  0  0  0  0  0  0  0  0  0
   -8.8307    3.9997    4.7369 C   0  0  0  0  0  0  0  0  0  0  0  0
  1  3  4  0
  1 14  4  0
  1  2  1  0
  3  4  4  0
  4  5  4  0
  5  6  4  0
  5 22  1  0
  6  7  1  0
  6 14  4  0
  7  8  1  0
  8  9  4  0
  8 12  4  0
  9 10  4  0
 10 11  4  0
 11 12  4  0
 12 13  1  0
 13 14  1  0
 13 15  1  6
 15 16  4  0
 15 20  4  0
 16 17  4  0
 17 18  4  0
 17 21  1  0
 18 19  4  0
 19 20  4  0
 23 24  4  0
 24 25  4  0
 25 26  4  0
 26 27  4  0
 27 28  4  0
 28 29  1  0
 29 30  1  0
 30 31  4  0
 31 32  4  0
 32 33  4  0
 33 34  4  0
 34 35  4  0
 35 36  1  0
 36 37  3  0
 28 38  4  0
 38 39  2  0
 38 40  4  0
 40 25  4  0
 35 30  4  0
  2 23  4  0
  2 40  4  0
M  END
$$$$

     RDKit          3D

 40 46  0  0  0  0  0  0  0  0999 V2000
   -7.6410    4.9930    6.8080 C   0  0  0  0  0  0  0  0  0  1  0  0
   -7.7310    4.0530    5.7140 C   0  0  0  0  0  0  0  0  0  2  0  0
   -6.4520    5.6300    6.8680 N   0  0  0  0  0  0  0  0  0  0  0  0
   -6.2260    6.5240    7.8670 N   0  0  0  0  0  0  0  0  0  0  0  0
   -7.1930    6.7500    8.7820 C   0  0  0  0  0  0  0  0  0  0  0  0
   -8.4240    6.1170    8.7580 C   0  0  0  0  0  0  0  0  0  0  0  0
   -9.3950    6.3570    9.7450 N   0  0  0  0  0  0  0  0  0  0  0  0
  -10.5620    5.6840    9.7600 C   0  0  0  0  0  0  0  0  0  0  0  0
  -11.5770    5.6820   10.5960 N   0  0  0  0  0  0  0  0  0  0  0  0
  -12.4690    4.7490   10.1080 N   0  0  0  0  0  0  0  0  0  0  0  0
  -12.0160    4.1880    8.9920 N   0  0  0  0  0  0  0  0  0  0  0  0
  -10.8400    4.7900    8.7610 N   0  0  0  0  0  0  0  0  0  0  0  0
   -9.9950    4.4790    7.6090 C   0  0  0  0  0  0  0  0  0  0  0  0
   -8.6630    5.2070    7.7200 C   0  0  0  0  0  0  0  0  0  0  0  0
  -10.7490    4.8610    6.3730 C   0  0  0  0  0  0  0  0  0  0  0  0
  -11.0350    6.2020    6.1170 C   0  0  0  0  0  0  0  0  0  0  0  0
  -11.7370    6.5580    4.9650 C   0  0  0  0  0  0  0  0  0  0  0  0
  -12.1550    5.5730    4.0710 C   0  0  0  0  0  0  0  0  0  0  0  0
  -11.8700    4.2310    4.3270 C   0  0  0  0  0  0  0  0  0  0  0  0
  -11.1660    3.8760    5.4790 C   0  0  0  0  0  0  0  0  0  0  0  0
  -12.0160    7.8660    4.7150 O   0  0  0  0  0  0  0  0  0  0  0  0
   -6.8990    7.6510    9.7710 O   0  0  0  0  0  0  0  0  0  0  0  0
   -6.9103    2.9264    5.5268 C   0  0  0  0  0  0  0  0  0  0  0  0
   -7.4191    1.9788    4.2235 S   0  0  0  0  0  0  0  0  0  0  0  0
   -8.7361    2.9451    3.8571 C   0  0  0  0  0  0  0  0  0  0  0  0
   -9.6190    2.7550    2.8539 N   0  0  0  0  0  0  0  0  0  0  0  0
  -10.6200    3.6582    2.6736 C   0  0  0  0  0  0  0  0  0  0  0  0
  -10.7237    4.7696    3.4774 N   0  0  0  0  0  0  0  0  0  0  0  0
  -11.8210    5.7221    3.2213 C   0  0  0  0  0  0  0  0  0  0  0  0
  -11.7123    6.3215    1.8336 C   0  0  0  0  0  0  0  0  0  0  0  0
  -12.6586    5.9626    0.8561 C   0  0  0  0  0  0  0  0  0  0  0  0
  -12.5801    6.4872   -0.4360 C   0  0  0  0  0  0  0  0  0  0  0  0
  -11.5592    7.3772   -0.7693 C   0  0  0  0  0  0  0  0  0  0  0  0
  -10.6135    7.7473    0.1888 C   0  0  0  0  0  0  0  0  0  0  0  0
  -10.6807    7.2278    1.4896 C   0  0  0  0  0  0  0  0  0  0  0  0
   -9.6888    7.6490    2.4489 C   0  0  0  0  0  0  0  0  0  0  0  0
   -8.8903    7.9919    3.2133 N   0  0  0  0  0  0  0  0  0  0  0  0
   -9.8349    4.9575    4.5142 C   0  0  0  0  0  0  0  0  0  0  0  0
   -9.9231    5.9706    5.2597 O   0  0  0  0  0  0  0  0  0  0  0  0
   -8.8162    4.0151    4.7216 C   0  0  0  0  0  0  0  0  0  0  0  0
  1  3  4  0
  1 14  4  0
  1  2  1  0
  3  4  4  0
  4  5  4  0
  5  6  4  0
  5 22  1  0
  6  7  1  0
  6 14  4  0
  7  8  1  0
  8  9  4  0
  8 12  4  0
  9 10  4  0
 10 11  4  0
 11 12  4  0
 12 13  1  0
 13 14  1  0
 13 15  1  6
 15 16  4  0
 15 20  4  0
 16 17  4  0
 17 18  4  0
 17 21  1  0
 18 19  4  0
 19 20  4  0
 23 24  4  0
 24 25  4  0
 25 26  4  0
 26 27  4  0
 27 28  4  0
 28 29  1  0
 29 30  1  0
 30 31  4  0
 31 32  4  0
 32 33  4  0
 33 34  4  0
 34 35  4  0
 35 36  1  0
 36 37  3  0
 28 38  4  0
 38 39  2  0
 38 40  4  0
 40 25  4  0
 35 30  4  0
  2 23  4  0
  2 40  4  0
M  END
$$$$

     RDKit          3D

 38 44  0  0  0  0  0  0  0  0999 V2000
   -7.6410    4.9930    6.8080 C   0  0  0  0  0  0  0  0  0  1  0  0
   -7.7310    4.0530    5.7140 C   0  0  0  0  0  0  0  0  0  2  0  0
   -6.4520    5.6300    6.8680 N   0  0  0  0  0  0  0  0  0  0  0  0
   -6.2260    6.5240    7.8670 N   0  0  0  0  0  0  0  0  0  0  0  0
   -7.1930    6.7500    8.7820 C   0  0  0  0  0  0  0  0  0  0  0  0
   -8.4240    6.1170    8.7580 C   0  0  0  0  0  0  0  0  0  0  0  0
   -9.3950    6.3570    9.7450 N   0  0  0  0  0  0  0  0  0  0  0  0
  -10.5620    5.6840    9.7600 C   0  0  0  0  0  0  0  0  0  0  0  0
  -11.5770    5.6820   10.5960 N   0  0  0  0  0  0  0  0  0  0  0  0
  -12.4690    4.7490   10.1080 N   0  0  0  0  0  0  0  0  0  0  0  0
  -12.0160    4.1880    8.9920 N   0  0  0  0  0  0  0  0  0  0  0  0
  -10.8400    4.7900    8.7610 N   0  0  0  0  0  0  0  0  0  0  0  0
   -9.9950    4.4790    7.6090 C   0  0  0  0  0  0  0  0  0  0  0  0
   -8.6630    5.2070    7.7200 C   0  0  0  0  0  0  0  0  0  0  0  0
  -10.7490    4.8610    6.3730 C   0  0  0  0  0  0  0  0  0  0  0  0
  -11.0350    6.2020    6.1170 C   0  0  0  0  0  0  0  0  0  0  0  0
  -11.7370    6.5580    4.9650 C   0  0  0  0  0  0  0  0  0  0  0  0
  -12.1550    5.5730    4.0710 C   0  0  0  0  0  0  0  0  0  0  0  0
  -11.8700    4.2310    4.3270 C   0  0  0  0  0  0  0  0  0  0  0  0
  -11.1660    3.8760    5.4790 C   0  0  0  0  0  0  0  0  0  0  0  0
  -12.0160    7.8660    4.7150 O   0  0  0  0  0  0  0  0  0  0  0  0
   -6.8990    7.6510    9.7710 O   0  0  0  0  0  0  0  0  0  0  0  0
   -6.8187    3.1244    5.3456 N   0  0  0  0  0  0  0  0  0  0  0  0
   -7.2715    2.4384    4.3031 N   0  0  0  0  0  0  0  0  0  0  0  0
   -8.4917    2.9261    4.0109 C   0  0  0  0  0  0  0  0  0  0  0  0
   -9.5522    2.2536    2.7189 S   0  0  0  0  0  0  0  0  0  0  0  0
   -8.8212    3.9322    4.8420 N   0  0  0  0  0  0  0  0  0  0  0  0
  -10.0414    4.6252    4.9203 N   0  0  0  0  0  0  0  0  0  0  0  0
  -10.5540    5.3417    3.9621 C   0  0  0  0  0  0  0  0  0  0  0  0
   -9.8608    5.6715    2.7021 C   0  0  0  0  0  0  0  0  0  0  0  0
   -8.4946    5.7596    2.4828 C   0  0  0  0  0  0  0  0  0  0  0  0
   -8.3489    6.1372    1.1646 C   0  0  0  0  0  0  0  0  0  0  0  0
   -9.6297    6.2586    0.6669 C   0  0  0  0  0  0  0  0  0  0  0  0
   -9.9932    6.6695   -0.7245 C   0  0  0  0  0  0  0  0  0  0  0  0
   -9.5204    5.7130   -1.8150 C   0  0  0  0  0  0  0  0  0  0  0  0
  -10.9868    5.7327   -1.4030 C   0  0  0  0  0  0  0  0  0  0  0  0
  -11.9305    6.3963   -2.4069 C   0  0  0  0  0  0  0  0  0  0  0  0
  -10.5071    5.9870    1.6038 O   0  0  0  0  0  0  0  0  0  0  0  0
  1  3  4  0
  1 14  4  0
  1  2  1  0
  3  4  4  0
  4  5  4  0
  5  6  4  0
  5 22  1  0
  6  7  1  0
  6 14  4  0
  7  8  1  0
  8  9  4  0
  8 12  4  0
  9 10  4  0
 10 11  4  0
 11 12  4  0
 12 13  1  0
 13 14  1  0
 13 15  1  6
 15 16  4  0
 15 20  4  0
 16 17  4  0
 17 18  4  0
 17 21  1  0
 18 19  4  0
 19 20  4  0
 23 24  4  0
 24 25  4  0
 25 26  1  0
 25 27  4  0
 27 28  1  0
 28 29  2  3
 29 30  1  0
 30 31  4  0
 31 32  4  0
 32 33  4  0
 33 34  1  0
 34 35  1  0
 35 36  1  0
 36 37  1  0
 33 38  4  0
 38 30  4  0
 36 34  1  0
  2 23  4  0
  2 27  4  0
M  CHG  1  26  -1
M  END
$$$$

     RDKit          3D

 47 54  0  0  0  0  0  0  0  0999 V2000
   -7.6410    4.9930    6.8080 C   0  0  0  0  0  0  0  0  0  1  0  0
   -7.7310    4.0530    5.7140 C   0  0  0  0  0  0  0  0  0  2  0  0
   -6.4520    5.6300    6.8680 N   0  0  0  0  0  0  0  0  0  0  0  0
   -6.2260    6.5240    7.8670 N   0  0  0  0  0  0  0  0  0  0  0  0
   -7.1930    6.7500    8.7820 C   0  0  0  0  0  0  0  0  0  0  0  0
   -8.4240    6.1170    8.7580 C   0  0  0  0  0  0  0  0  0  0  0  0
   -9.3950    6.3570    9.7450 N   0  0  0  0  0  0  0  0  0  0  0  0
  -10.5620    5.6840    9.7600 C   0  0  0  0  0  0  0  0  0  0  0  0
  -11.5770    5.6820   10.5960 N   0  0  0  0  0  0  0  0  0  0  0  0
  -12.4690    4.7490   10.1080 N   0  0  0  0  0  0  0  0  0  0  0  0
  -12.0160    4.1880    8.9920 N   0  0  0  0  0  0  0  0  0  0  0  0
  -10.8400    4.7900    8.7610 N   0  0  0  0  0  0  0  0  0  0  0  0
   -9.9950    4.4790    7.6090 C   0  0  0  0  0  0  0  0  0  0  0  0
   -8.6630    5.2070    7.7200 C   0  0  0  0  0  0  0  0  0  0  0  0
  -10.7490    4.8610    6.3730 C   0  0  0  0  0  0  0  0  0  0  0  0
  -11.0350    6.2020    6.1170 C   0  0  0  0  0  0  0  0  0  0  0  0
  -11.7370    6.5580    4.9650 C   0  0  0  0  0  0  0  0  0  0  0  0
  -12.1550    5.5730    4.0710 C   0  0  0  0  0  0  0  0  0  0  0  0
  -11.8700    4.2310    4.3270 C   0  0  0  0  0  0  0  0  0  0  0  0
  -11.1660    3.8760    5.4790 C   0  0  0  0  0  0  0  0  0  0  0  0
  -12.0160    7.8660    4.7150 O   0  0  0  0  0  0  0  0  0  0  0  0
   -6.8990    7.6510    9.7710 O   0  0  0  0  0  0  0  0  0  0  0  0
   -6.8852    3.0330    5.4454 N   0  0  0  0  0  0  0  0  0  0  0  0
   -7.3227    2.3529    4.3968 N   0  0  0  0  0  0  0  0  0  0  0  0
   -8.4740    2.9311    4.0084 C   0  0  0  0  0  0  0  0  0  0  0  0
   -9.4214    2.3782    2.5856 S   0  0  0  0  0  0  0  0  0  0  0  0
   -8.3813    3.2470    1.3621 C   0  0  0  0  0  0  0  0  0  0  0  0
   -7.0903    2.5223    1.1717 C   0  0  0  0  0  0  0  0  0  0  0  0
   -5.8800    3.0566    1.4139 N   0  0  0  0  0  0  0  0  0  0  0  0
   -4.9983    2.1096    1.1364 N   0  0  0  0  0  0  0  0  0  0  0  0
   -5.7009    1.0316    0.7350 C   0  0  0  0  0  0  0  0  0  1  0  0
   -5.1203   -0.2697    0.3175 C   0  0  0  0  0  0  0  0  0  2  0  0
   -5.9916   -1.2518   -0.1919 C   0  0  0  0  0  0  0  0  0  0  0  0
   -5.5065   -2.4941   -0.6056 C   0  0  0  0  0  0  0  0  0  0  0  0
   -4.1453   -2.7781   -0.5154 C   0  0  0  0  0  0  0  0  0  0  0  0
   -3.2650   -1.8211   -0.0100 C   0  0  0  0  0  0  0  0  0  0  0  0
   -3.7359   -0.5693    0.4087 C   0  0  0  0  0  0  0  0  0  0  0  0
   -2.5444    0.5588    1.0495 Cl  0  0  0  0  0  0  0  0  0  0  0  0
   -6.9895    1.2847    0.7536 O   0  0  0  0  0  0  0  0  0  0  0  0
   -8.8036    3.9711    4.8021 N   0  0  0  0  0  0  0  0  0  0  0  0
   -9.9243    4.9036    4.6317 C   0  0  0  0  0  0  0  0  0  0  0  0
   -9.6494    5.8678    3.5087 C   0  0  0  0  0  0  0  0  0  0  0  0
   -8.5603    6.7521    3.5867 C   0  0  0  0  0  0  0  0  0  0  0  0
   -8.2950    7.6377    2.5381 C   0  0  0  0  0  0  0  0  0  0  0  0
   -9.1177    7.6528    1.4088 C   0  0  0  0  0  0  0  0  0  0  0  0
  -10.2099    6.7848    1.3280 C   0  0  0  0  0  0  0  0  0  0  0  0
  -10.4790    5.8974    2.3744 C   0  0  0  0  0  0  0  0  0  0  0  0
  1  3  4  0
  1 14  4  0
  1  2  1  0
  3  4  4  0
  4  5  4  0
  5  6  4  0
  5 22  1  0
  6  7  1  0
  6 14  4  0
  7  8  1  0
  8  9  4  0
  8 12  4  0
  9 10  4  0
 10 11  4  0
 11 12  4  0
 12 13  1  0
 13 14  1  0
 13 15  1  6
 15 16  4  0
 15 20  4  0
 16 17  4  0
 17 18  4  0
 17 21  1  0
 18 19  4  0
 19 20  4  0
 23 24  4  0
 24 25  4  0
 25 26  1  0
 26 27  1  0
 27 28  1  0
 28 29  4  0
 29 30  4  0
 30 31  4  0
 31 32  1  0
 32 33  4  0
 33 34  4  0
 34 35  4  0
 35 36  4  0
 36 37  4  0
 37 38  1  0
 31 39  4  0
 25 40  4  0
 40 41  1  0
 41 42  1  0
 42 43  4  0
 43 44  4  0
 44 45  4  0
 45 46  4  0
 46 47  4  0
 47 42  4  0
 39 28  4  0
 37 32  4  0
  2 23  4  0
  2 40  4  0
M  END
$$$$

     RDKit          3D

 47 54  0  0  0  0  0  0  0  0999 V2000
   -7.6410    4.9930    6.8080 C   0  0  0  0  0  0  0  0  0  1  0  0
   -7.7310    4.0530    5.7140 C   0  0  0  0  0  0  0  0  0  2  0  0
   -6.4520    5.6300    6.8680 N   0  0  0  0  0  0  0  0  0  0  0  0
   -6.2260    6.5240    7.8670 N   0  0  0  0  0  0  0  0  0  0  0  0
   -7.1930    6.7500    8.7820 C   0  0  0  0  0  0  0  0  0  0  0  0
   -8.4240    6.1170    8.7580 C   0  0  0  0  0  0  0  0  0  0  0  0
   -9.3950    6.3570    9.7450 N   0  0  0  0  0  0  0  0  0  0  0  0
  -10.5620    5.6840    9.7600 C   0  0  0  0  0  0  0  0  0  0  0  0
  -11.5770    5.6820   10.5960 N   0  0  0  0  0  0  0  0  0  0  0  0
  -12.4690    4.7490   10.1080 N   0  0  0  0  0  0  0  0  0  0  0  0
  -12.0160    4.1880    8.9920 N   0  0  0  0  0  0  0  0  0  0  0  0
  -10.8400    4.7900    8.7610 N   0  0  0  0  0  0  0  0  0  0  0  0
   -9.9950    4.4790    7.6090 C   0  0  0  0  0  0  0  0  0  0  0  0
   -8.6630    5.2070    7.7200 C   0  0  0  0  0  0  0  0  0  0  0  0
  -10.7490    4.8610    6.3730 C   0  0  0  0  0  0  0  0  0  0  0  0
  -11.0350    6.2020    6.1170 C   0  0  0  0  0  0  0  0  0  0  0  0
  -11.7370    6.5580    4.9650 C   0  0  0  0  0  0  0  0  0  0  0  0
  -12.1550    5.5730    4.0710 C   0  0  0  0  0  0  0  0  0  0  0  0
  -11.8700    4.2310    4.3270 C   0  0  0  0  0  0  0  0  0  0  0  0
  -11.1660    3.8760    5.4790 C   0  0  0  0  0  0  0  0  0  0  0  0
  -12.0160    7.8660    4.7150 O   0  0  0  0  0  0  0  0  0  0  0  0
   -6.8990    7.6510    9.7710 O   0  0  0  0  0  0  0  0  0  0  0  0
   -6.8013    3.1516    5.3373 N   0  0  0  0  0  0  0  0  0  0  0  0
   -7.2142    2.4980    4.2636 N   0  0  0  0  0  0  0  0  0  0  0  0
   -8.4412    2.9636    3.9703 C   0  0  0  0  0  0  0  0  0  0  0  0
   -9.3429    2.4678    2.4964 S   0  0  0  0  0  0  0  0  0  0  0  0
  -10.0748    0.9794    3.2561 C   0  0  0  0  0  0  0  0  0  0  0  0
   -9.0439   -0.0910    3.3945 C   0  0  0  0  0  0  0  0  0  0  0  0
   -8.6716   -0.6371    4.5659 N   0  0  0  0  0  0  0  0  0  0  0  0
   -7.7410   -1.5319    4.2741 N   0  0  0  0  0  0  0  0  0  0  0  0
   -7.5796   -1.5000    2.9349 C   0  0  0  0  0  0  0  0  0  1  0  0
   -6.6190   -2.3540    2.1921 C   0  0  0  0  0  0  0  0  0  2  0  0
   -5.8066   -3.2497    2.9149 C   0  0  0  0  0  0  0  0  0  0  0  0
   -4.8890   -4.0719    2.2576 C   0  0  0  0  0  0  0  0  0  0  0  0
   -4.7673   -4.0148    0.8700 C   0  0  0  0  0  0  0  0  0  0  0  0
   -5.5624   -3.1345    0.1358 C   0  0  0  0  0  0  0  0  0  0  0  0
   -6.4875   -2.3029    0.7808 C   0  0  0  0  0  0  0  0  0  0  0  0
   -7.4482   -1.2293   -0.2332 Cl  0  0  0  0  0  0  0  0  0  0  0  0
   -8.3816   -0.6148    2.3927 O   0  0  0  0  0  0  0  0  0  0  0  0
   -8.8432    3.9089    4.8489 N   0  0  0  0  0  0  0  0  0  0  0  0
   -9.9933    4.8125    4.7101 C   0  0  0  0  0  0  0  0  0  0  0  0
  -11.2940    4.0490    4.7191 C   0  0  0  0  0  0  0  0  0  0  0  0
  -12.1816    4.1453    3.6330 C   0  0  0  0  0  0  0  0  0  0  0  0
  -13.3821    3.4289    3.6372 C   0  0  0  0  0  0  0  0  0  0  0  0
  -13.7103    2.6179    4.7263 C   0  0  0  0  0  0  0  0  0  0  0  0
  -12.8397    2.5241    5.8147 C   0  0  0  0  0  0  0  0  0  0  0  0
  -11.6374    3.2376    5.8142 C   0  0  0  0  0  0  0  0  0  0  0  0
  1  3  4  0
  1 14  4  0
  1  2  1  0
  3  4  4  0
  4  5  4  0
  5  6  4  0
  5 22  1  0
  6  7  1  0
  6 14  4  0
  7  8  1  0
  8  9  4  0
  8 12  4  0
  9 10  4  0
 10 11  4  0
 11 12  4  0
 12 13  1  0
 13 14  1  0
 13 15  1  6
 15 16  4  0
 15 20  4  0
 16 17  4  0
 17 18  4  0
 17 21  1  0
 18 19  4  0
 19 20  4  0
 23 24  4  0
 24 25  4  0
 25 26  1  0
 26 27  1  0
 27 28  1  0
 28 29  4  0
 29 30  4  0
 30 31  4  0
 31 32  1  0
 32 33  4  0
 33 34  4  0
 34 35  4  0
 35 36  4  0
 36 37  4  0
 37 38  1  0
 31 39  4  0
 25 40  4  0
 40 41  1  0
 41 42  1  0
 42 43  4  0
 43 44  4  0
 44 45  4  0
 45 46  4  0
 46 47  4  0
 47 42  4  0
 39 28  4  0
 37 32  4  0
  2 23  4  0
  2 40  4  0
M  END
$$$$

     RDKit          3D

 47 54  0  0  0  0  0  0  0  0999 V2000
   -7.6410    4.9930    6.8080 C   0  0  0  0  0  0  0  0  0  1  0  0
   -7.7310    4.0530    5.7140 C   0  0  0  0  0  0  0  0  0  2  0  0
   -6.4520    5.6300    6.8680 N   0  0  0  0  0  0  0  0  0  0  0  0
   -6.2260    6.5240    7.8670 N   0  0  0  0  0  0  0  0  0  0  0  0
   -7.1930    6.7500    8.7820 C   0  0  0  0  0  0  0  0  0  0  0  0
   -8.4240    6.1170    8.7580 C   0  0  0  0  0  0  0  0  0  0  0  0
   -9.3950    6.3570    9.7450 N   0  0  0  0  0  0  0  0  0  0  0  0
  -10.5620    5.6840    9.7600 C   0  0  0  0  0  0  0  0  0  0  0  0
  -11.5770    5.6820   10.5960 N   0  0  0  0  0  0  0  0  0  0  0  0
  -12.4690    4.7490   10.1080 N   0  0  0  0  0  0  0  0  0  0  0  0
  -12.0160    4.1880    8.9920 N   0  0  0  0  0  0  0  0  0  0  0  0
  -10.8400    4.7900    8.7610 N   0  0  0  0  0  0  0  0  0  0  0  0
   -9.9950    4.4790    7.6090 C   0  0  0  0  0  0  0  0  0  0  0  0
   -8.6630    5.2070    7.7200 C   0  0  0  0  0  0  0  0  0  0  0  0
  -10.7490    4.8610    6.3730 C   0  0  0  0  0  0  0  0  0  0  0  0
  -11.0350    6.2020    6.1170 C   0  0  0  0  0  0  0  0  0  0  0  0
  -11.7370    6.5580    4.9650 C   0  0  0  0  0  0  0  0  0  0  0  0
  -12.1550    5.5730    4.0710 C   0  0  0  0  0  0  0  0  0  0  0  0
  -11.8700    4.2310    4.3270 C   0  0  0  0  0  0  0  0  0  0  0  0
  -11.1660    3.8760    5.4790 C   0  0  0  0  0  0  0  0  0  0  0  0
  -12.0160    7.8660    4.7150 O   0  0  0  0  0  0  0  0  0  0  0  0
   -6.8990    7.6510    9.7710 O   0  0  0  0  0  0  0  0  0  0  0  0
   -6.8866    3.0288    5.4560 N   0  0  0  0  0  0  0  0  0  0  0  0
   -7.3148    2.3156    4.4245 N   0  0  0  0  0  0  0  0  0  0  0  0
   -6.6109    1.1629    3.9071 C   0  0  0  0  0  0  0  0  0  0  0  0
   -5.4868    0.6596    4.5910 C   0  0  0  0  0  0  0  0  0  0  0  0
   -4.7930   -0.4561    4.1051 C   0  0  0  0  0  0  0  0  0  0  0  0
   -5.2134   -1.0880    2.9362 C   0  0  0  0  0  0  0  0  0  0  0  0
   -6.3290   -0.6032    2.2470 C   0  0  0  0  0  0  0  0  0  0  0  0
   -7.0206    0.5190    2.7224 C   0  0  0  0  0  0  0  0  0  0  0  0
   -8.4831    2.8288    3.9824 C   0  0  0  0  0  0  0  0  0  0  0  0
   -8.8101    3.9224    4.7653 C   0  0  0  0  0  0  0  0  0  0  0  0
   -9.9497    4.8453    4.5780 C   0  0  0  0  0  0  0  0  0  0  0  0
   -9.9094    5.9925    5.1019 O   0  0  0  0  0  0  0  0  0  0  0  0
  -11.0746    4.4672    3.7624 N   0  0  0  0  0  0  0  0  0  0  0  0
  -12.2426    5.3345    3.6062 C   0  0  0  0  0  0  0  0  0  0  0  0
  -12.0361    6.2680    2.4453 C   0  0  0  0  0  0  0  0  0  0  0  0
  -12.0415    5.7743    1.1352 C   0  0  0  0  0  0  0  0  0  0  0  0
  -11.8474    6.6401    0.0596 C   0  0  0  0  0  0  0  0  0  0  0  0
  -11.6383    8.0115    0.3009 C   0  0  0  0  0  0  0  0  0  0  0  0
  -11.4221    8.9463   -0.7777 N   0  0  0  0  0  0  0  0  0  0  0  0
  -11.2001    8.6878   -2.0823 C   0  0  0  0  0  0  0  0  0  0  0  0
  -11.0401    9.8902   -2.7366 C   0  0  0  0  0  0  0  0  0  0  0  0
  -11.1548   10.9042   -1.8554 N   0  0  0  0  0  0  0  0  0  0  0  0
  -11.3868   10.2925   -0.6719 C   0  0  0  0  0  0  0  0  0  0  0  0
  -11.6447    8.4647    1.5863 N   0  0  0  0  0  0  0  0  0  0  0  0
  -11.8372    7.6382    2.6487 C   0  0  0  0  0  0  0  0  0  0  0  0
  1  3  4  0
  1 14  4  0
  1  2  1  0
  3  4  4  0
  4  5  4  0
  5  6  4  0
  5 22  1  0
  6  7  1  0
  6 14  4  0
  7  8  1  0
  8  9  4  0
  8 12  4  0
  9 10  4  0
 10 11  4  0
 11 12  4  0
 12 13  1  0
 13 14  1  0
 13 15  1  6
 15 16  4  0
 15 20  4  0
 16 17  4  0
 17 18  4  0
 17 21  1  0
 18 19  4  0
 19 20  4  0
 23 24  4  0
 24 25  1  0
 25 26  4  0
 26 27  4  0
 27 28  4  0
 28 29  4  0
 29 30  4  0
 24 31  4  0
 31 32  4  0
 32 33  1  0
 33 34  2  0
 33 35  1  0
 35 36  1  0
 36 37  1  0
 37 38  4  0
 38 39  4  0
 39 40  4  0
 40 41  1  0
 41 42  4  0
 42 43  4  0
 43 44  4  0
 44 45  4  0
 40 46  4  0
 46 47  4  0
 47 37  4  0
 30 25  4  0
 45 41  4  0
  2 23  4  0
  2 32  4  0
M  END
$$$$

     RDKit          3D

 47 54  0  0  0  0  0  0  0  0999 V2000
   -7.6410    4.9930    6.8080 C   0  0  0  0  0  0  0  0  0  1  0  0
   -7.7310    4.0530    5.7140 C   0  0  0  0  0  0  0  0  0  2  0  0
   -6.4520    5.6300    6.8680 N   0  0  0  0  0  0  0  0  0  0  0  0
   -6.2260    6.5240    7.8670 N   0  0  0  0  0  0  0  0  0  0  0  0
   -7.1930    6.7500    8.7820 C   0  0  0  0  0  0  0  0  0  0  0  0
   -8.4240    6.1170    8.7580 C   0  0  0  0  0  0  0  0  0  0  0  0
   -9.3950    6.3570    9.7450 N   0  0  0  0  0  0  0  0  0  0  0  0
  -10.5620    5.6840    9.7600 C   0  0  0  0  0  0  0  0  0  0  0  0
  -11.5770    5.6820   10.5960 N   0  0  0  0  0  0  0  0  0  0  0  0
  -12.4690    4.7490   10.1080 N   0  0  0  0  0  0  0  0  0  0  0  0
  -12.0160    4.1880    8.9920 N   0  0  0  0  0  0  0  0  0  0  0  0
  -10.8400    4.7900    8.7610 N   0  0  0  0  0  0  0  0  0  0  0  0
   -9.9950    4.4790    7.6090 C   0  0  0  0  0  0  0  0  0  0  0  0
   -8.6630    5.2070    7.7200 C   0  0  0  0  0  0  0  0  0  0  0  0
  -10.7490    4.8610    6.3730 C   0  0  0  0  0  0  0  0  0  0  0  0
  -11.0350    6.2020    6.1170 C   0  0  0  0  0  0  0  0  0  0  0  0
  -11.7370    6.5580    4.9650 C   0  0  0  0  0  0  0  0  0  0  0  0
  -12.1550    5.5730    4.0710 C   0  0  0  0  0  0  0  0  0  0  0  0
  -11.8700    4.2310    4.3270 C   0  0  0  0  0  0  0  0  0  0  0  0
  -11.1660    3.8760    5.4790 C   0  0  0  0  0  0  0  0  0  0  0  0
  -12.0160    7.8660    4.7150 O   0  0  0  0  0  0  0  0  0  0  0  0
   -6.8990    7.6510    9.7710 O   0  0  0  0  0  0  0  0  0  0  0  0
   -6.9765    2.9374    5.5446 N   0  0  0  0  0  0  0  0  0  0  0  0
   -7.3630    2.2797    4.4595 N   0  0  0  0  0  0  0  0  0  0  0  0
   -6.7260    1.0723    3.9910 C   0  0  0  0  0  0  0  0  0  0  0  0
   -7.3498    0.2343    3.0450 C   0  0  0  0  0  0  0  0  0  0  0  0
   -6.7209   -0.9373    2.6142 C   0  0  0  0  0  0  0  0  0  0  0  0
   -5.4685   -1.2904    3.1256 C   0  0  0  0  0  0  0  0  0  0  0  0
   -4.8434   -0.4746    4.0666 C   0  0  0  0  0  0  0  0  0  0  0  0
   -5.4669    0.6990    4.5012 C   0  0  0  0  0  0  0  0  0  0  0  0
   -8.4013    2.9267    3.8862 C   0  0  0  0  0  0  0  0  0  0  0  0
   -8.7026    4.0430    4.6509 C   0  0  0  0  0  0  0  0  0  0  0  0
   -9.7081    5.0869    4.3483 C   0  0  0  0  0  0  0  0  0  0  0  0
   -9.7461    6.1354    5.0481 O   0  0  0  0  0  0  0  0  0  0  0  0
  -10.6325    4.9191    3.2531 N   0  0  0  0  0  0  0  0  0  0  0  0
  -11.6627    5.9064    2.9272 C   0  0  0  0  0  0  0  0  0  0  0  0
  -11.6720    6.1764    1.4465 C   0  0  0  0  0  0  0  0  0  0  0  0
  -12.1052    5.1907    0.5466 C   0  0  0  0  0  0  0  0  0  0  0  0
  -12.1096    5.4481   -0.8259 C   0  0  0  0  0  0  0  0  0  0  0  0
  -11.6763    6.7022   -1.2966 C   0  0  0  0  0  0  0  0  0  0  0  0
  -11.6647    7.0108   -2.7029 N   0  0  0  0  0  0  0  0  0  0  0  0
  -11.7810    6.1657   -3.7467 C   0  0  0  0  0  0  0  0  0  0  0  0
  -11.6738    6.9033   -4.9040 C   0  0  0  0  0  0  0  0  0  0  0  0
  -11.4888    8.2066   -4.5976 N   0  0  0  0  0  0  0  0  0  0  0  0
  -11.4898    8.2341   -3.2478 C   0  0  0  0  0  0  0  0  0  0  0  0
  -11.2636    7.6453   -0.3997 N   0  0  0  0  0  0  0  0  0  0  0  0
  -11.2488    7.4165    0.9391 C   0  0  0  0  0  0  0  0  0  0  0  0
  1  3  4  0
  1 14  4  0
  1  2  1  0
  3  4  4  0
  4  5  4  0
  5  6  4  0
  5 22  1  0
  6  7  1  0
  6 14  4  0
  7  8  1  0
  8  9  4  0
  8 12  4  0
  9 10  4  0
 10 11  4  0
 11 12  4  0
 12 13  1  0
 13 14  1  0
 13 15  1  6
 15 16  4  0
 15 20  4  0
 16 17  4  0
 17 18  4  0
 17 21  1  0
 18 19  4  0
 19 20  4  0
 23 24  4  0
 24 25  1  0
 25 26  4  0
 26 27  4  0
 27 28  4  0
 28 29  4  0
 29 30  4  0
 24 31  4  0
 31 32  4  0
 32 33  1  0
 33 34  2  0
 33 35  1  0
 35 36  1  0
 36 37  1  0
 37 38  4  0
 38 39  4  0
 39 40  4  0
 40 41  1  0
 41 42  4  0
 42 43  4  0
 43 44  4  0
 44 45  4  0
 40 46  4  0
 46 47  4  0
 47 37  4  0
 30 25  4  0
 45 41  4  0
  2 23  4  0
  2 32  4  0
M  END
$$$$

     RDKit          3D

 42 46  0  0  0  0  0  0  0  0999 V2000
   -7.6410    4.9930    6.8080 C   0  0  0  0  0  0  0  0  0  1  0  0
   -7.7310    4.0530    5.7140 C   0  0  0  0  0  0  0  0  0  2  0  0
   -6.4520    5.6300    6.8680 N   0  0  0  0  0  0  0  0  0  0  0  0
   -6.2260    6.5240    7.8670 N   0  0  0  0  0  0  0  0  0  0  0  0
   -7.1930    6.7500    8.7820 C   0  0  0  0  0  0  0  0  0  0  0  0
   -8.4240    6.1170    8.7580 C   0  0  0  0  0  0  0  0  0  0  0  0
   -9.3950    6.3570    9.7450 N   0  0  0  0  0  0  0  0  0  0  0  0
  -10.5620    5.6840    9.7600 C   0  0  0  0  0  0  0  0  0  0  0  0
  -11.5770    5.6820   10.5960 N   0  0  0  0  0  0  0  0  0  0  0  0
  -12.4690    4.7490   10.1080 N   0  0  0  0  0  0  0  0  0  0  0  0
  -12.0160    4.1880    8.9920 N   0  0  0  0  0  0  0  0  0  0  0  0
  -10.8400    4.7900    8.7610 N   0  0  0  0  0  0  0  0  0  0  0  0
   -9.9950    4.4790    7.6090 C   0  0  0  0  0  0  0  0  0  0  0  0
   -8.6630    5.2070    7.7200 C   0  0  0  0  0  0  0  0  0  0  0  0
  -10.7490    4.8610    6.3730 C   0  0  0  0  0  0  0  0  0  0  0  0
  -11.0350    6.2020    6.1170 C   0  0  0  0  0  0  0  0  0  0  0  0
  -11.7370    6.5580    4.9650 C   0  0  0  0  0  0  0  0  0  0  0  0
  -12.1550    5.5730    4.0710 C   0  0  0  0  0  0  0  0  0  0  0  0
  -11.8700    4.2310    4.3270 C   0  0  0  0  0  0  0  0  0  0  0  0
  -11.1660    3.8760    5.4790 C   0  0  0  0  0  0  0  0  0  0  0  0
  -12.0160    7.8660    4.7150 O   0  0  0  0  0  0  0  0  0  0  0  0
   -6.8990    7.6510    9.7710 O   0  0  0  0  0  0  0  0  0  0  0  0
   -6.8808    3.0385    5.4405 N   0  0  0  0  0  0  0  0  0  0  0  0
   -7.3139    2.3573    4.3925 N   0  0  0  0  0  0  0  0  0  0  0  0
   -8.4668    2.9291    4.0087 C   0  0  0  0  0  0  0  0  0  0  0  0
   -9.4262    2.3581    2.6027 S   0  0  0  0  0  0  0  0  0  0  0  0
   -8.3186    3.0899    1.3467 C   0  0  0  0  0  0  0  0  0  0  0  0
   -7.1424    2.1968    1.0948 C   0  0  0  0  0  0  0  0  0  0  0  0
   -5.9766    2.6567    1.2485 O   0  0  0  0  0  0  0  0  0  0  0  0
   -7.3452    0.8541    0.6273 N   0  0  0  0  0  0  0  0  0  0  0  0
   -6.2815   -0.0764    0.3717 C   0  0  0  0  0  0  0  0  0  0  0  0
   -6.4646   -0.9899   -0.4757 O   0  0  0  0  0  0  0  0  0  0  0  0
   -5.0357    0.0008    1.0878 N   0  0  0  0  0  0  0  0  0  0  0  0
   -3.7571   -0.5199    0.5805 C   0  0  0  0  0  0  0  0  0  0  0  0
   -3.7466   -2.0525    0.5734 C   0  0  0  0  0  0  0  0  0  0  0  0
   -3.4422    0.0562   -0.8058 C   0  0  0  0  0  0  0  0  0  0  0  0
   -8.8012    3.9679    4.8034 N   0  0  0  0  0  0  0  0  0  0  0  0
   -9.9390    4.8850    4.6523 C   0  0  0  0  0  0  0  0  0  0  0  0
   -9.6585    5.9662    3.6070 C   0  0  0  0  0  0  0  0  0  0  0  0
   -8.4881    6.8129    3.9951 C   0  0  0  0  0  0  0  0  0  0  0  0
   -7.3570    6.6096    3.4733 O   0  0  0  0  0  0  0  0  0  0  0  0
   -8.6383    7.8205    4.9399 O   0  0  0  0  0  0  0  0  0  0  0  0
  1  3  4  0
  1 14  4  0
  1  2  1  0
  3  4  4  0
  4  5  4  0
  5  6  4  0
  5 22  1  0
  6  7  1  0
  6 14  4  0
  7  8  1  0
  8  9  4  0
  8 12  4  0
  9 10  4  0
 10 11  4  0
 11 12  4  0
 12 13  1  0
 13 14  1  0
 13 15  1  6
 15 16  4  0
 15 20  4  0
 16 17  4  0
 17 18  4  0
 17 21  1  0
 18 19  4  0
 19 20  4  0
 23 24  4  0
 24 25  4  0
 25 26  1  0
 26 27  1  0
 27 28  1  0
 28 29  2  0
 28 30  1  0
 30 31  1  0
 31 32  2  0
 31 33  1  0
 33 34  1  0
 34 35  1  0
 34 36  1  0
 25 37  4  0
 37 38  1  0
 38 39  1  0
 39 40  1  0
 40 41  2  0
 40 42  1  0
  2 23  4  0
  2 37  4  0
M  CHG  1  42  -1
M  END
$$$$

     RDKit          3D

 45 52  0  0  0  0  0  0  0  0999 V2000
   -7.6410    4.9930    6.8080 C   0  0  0  0  0  0  0  0  0  1  0  0
   -7.7310    4.0530    5.7140 C   0  0  0  0  0  0  0  0  0  2  0  0
   -6.4520    5.6300    6.8680 N   0  0  0  0  0  0  0  0  0  0  0  0
   -6.2260    6.5240    7.8670 N   0  0  0  0  0  0  0  0  0  0  0  0
   -7.1930    6.7500    8.7820 C   0  0  0  0  0  0  0  0  0  0  0  0
   -8.4240    6.1170    8.7580 C   0  0  0  0  0  0  0  0  0  0  0  0
   -9.3950    6.3570    9.7450 N   0  0  0  0  0  0  0  0  0  0  0  0
  -10.5620    5.6840    9.7600 C   0  0  0  0  0  0  0  0  0  0  0  0
  -11.5770    5.6820   10.5960 N   0  0  0  0  0  0  0  0  0  0  0  0
  -12.4690    4.7490   10.1080 N   0  0  0  0  0  0  0  0  0  0  0  0
  -12.0160    4.1880    8.9920 N   0  0  0  0  0  0  0  0  0  0  0  0
  -10.8400    4.7900    8.7610 N   0  0  0  0  0  0  0  0  0  0  0  0
   -9.9950    4.4790    7.6090 C   0  0  0  0  0  0  0  0  0  0  0  0
   -8.6630    5.2070    7.7200 C   0  0  0  0  0  0  0  0  0  0  0  0
  -10.7490    4.8610    6.3730 C   0  0  0  0  0  0  0  0  0  0  0  0
  -11.0350    6.2020    6.1170 C   0  0  0  0  0  0  0  0  0  0  0  0
  -11.7370    6.5580    4.9650 C   0  0  0  0  0  0  0  0  0  0  0  0
  -12.1550    5.5730    4.0710 C   0  0  0  0  0  0  0  0  0  0  0  0
  -11.8700    4.2310    4.3270 C   0  0  0  0  0  0  0  0  0  0  0  0
  -11.1660    3.8760    5.4790 C   0  0  0  0  0  0  0  0  0  0  0  0
  -12.0160    7.8660    4.7150 O   0  0  0  0  0  0  0  0  0  0  0  0
   -6.8990    7.6510    9.7710 O   0  0  0  0  0  0  0  0  0  0  0  0
   -6.7856    3.0558    5.4279 C   0  0  0  0  0  0  0  0  0  0  0  0
   -6.9483    2.1294    4.3948 C   0  0  0  0  0  0  0  0  0  0  0  0
   -5.9619    1.1747    4.1099 C   0  0  0  0  0  0  0  0  0  0  0  0
   -6.1470    0.2711    3.0605 C   0  0  0  0  0  0  0  0  0  0  0  0
   -7.3162    0.3118    2.2952 C   0  0  0  0  0  0  0  0  0  0  0  0
   -8.3252    1.2433    2.5895 C   0  0  0  0  0  0  0  0  0  0  0  0
   -8.1339    2.1709    3.6301 C   0  0  0  0  0  0  0  0  0  0  0  0
   -9.0623    3.0867    3.8943 O   0  0  0  0  0  0  0  0  0  0  0  0
   -8.9383    3.9855    4.8665 C   0  0  0  0  0  0  0  0  0  0  0  0
   -9.8544    4.8350    5.0302 O   0  0  0  0  0  0  0  0  0  0  0  0
   -9.5621    1.2677    1.7247 C   0  0  0  0  0  0  0  0  0  0  0  0
   -9.8057   -0.0550    1.1101 N   0  0  0  0  0  0  0  0  0  0  0  0
  -10.9855    0.0065    0.2233 C   0  0  0  0  0  0  0  0  0  0  0  0
  -11.4872   -1.3844   -0.0886 C   0  0  0  0  0  0  0  0  0  0  0  0
  -11.9728   -2.1813    0.9618 C   0  0  0  0  0  0  0  0  0  0  0  0
  -12.4415   -3.4722    0.7139 C   0  0  0  0  0  0  0  0  0  0  0  0
  -12.4308   -3.9815   -0.5840 C   0  0  0  0  0  0  0  0  0  0  0  0
  -11.9513   -3.2027   -1.6393 C   0  0  0  0  0  0  0  0  0  0  0  0
  -11.4734   -1.8971   -1.4051 C   0  0  0  0  0  0  0  0  0  0  0  0
  -10.9784   -1.0962   -2.4476 O   0  0  0  0  0  0  0  0  0  0  0  0
  -10.9040   -1.4970   -3.8118 C   0  0  0  0  0  0  0  0  0  0  0  0
   -8.6080   -0.4903    0.3605 C   0  0  0  0  0  0  0  0  0  0  0  0
   -7.4892   -0.5855    1.2395 O   0  0  0  0  0  0  0  0  0  0  0  0
  1  3  4  0
  1 14  4  0
  1  2  1  0
  3  4  4  0
  4  5  4  0
  5  6  4  0
  5 22  1  0
  6  7  1  0
  6 14  4  0
  7  8  1  0
  8  9  4  0
  8 12  4  0
  9 10  4  0
 10 11  4  0
 11 12  4  0
 12 13  1  0
 13 14  1  0
 13 15  1  6
 15 16  4  0
 15 20  4  0
 16 17  4  0
 17 18  4  0
 17 21  1  0
 18 19  4  0
 19 20  4  0
 23 24  4  0
 24 25  4  0
 25 26  4  0
 26 27  4  0
 27 28  4  0
 28 29  4  0
 29 30  4  0
 30 31  4  0
 31 32  2  0
 28 33  1  0
 33 34  1  0
 34 35  1  0
 35 36  1  0
 36 37  4  0
 37 38  4  0
 38 39  4  0
 39 40  4  0
 40 41  4  0
 41 42  1  0
 42 43  1  0
 34 44  1  0
 44 45  1  0
 41 36  4  0
 29 24  4  0
 45 27  1  0
  2 23  4  0
  2 31  4  0
M  END
$$$$

     RDKit          3D

 45 52  0  0  0  0  0  0  0  0999 V2000
   -7.6410    4.9930    6.8080 C   0  0  0  0  0  0  0  0  0  1  0  0
   -7.7310    4.0530    5.7140 C   0  0  0  0  0  0  0  0  0  2  0  0
   -6.4520    5.6300    6.8680 N   0  0  0  0  0  0  0  0  0  0  0  0
   -6.2260    6.5240    7.8670 N   0  0  0  0  0  0  0  0  0  0  0  0
   -7.1930    6.7500    8.7820 C   0  0  0  0  0  0  0  0  0  0  0  0
   -8.4240    6.1170    8.7580 C   0  0  0  0  0  0  0  0  0  0  0  0
   -9.3950    6.3570    9.7450 N   0  0  0  0  0  0  0  0  0  0  0  0
  -10.5620    5.6840    9.7600 C   0  0  0  0  0  0  0  0  0  0  0  0
  -11.5770    5.6820   10.5960 N   0  0  0  0  0  0  0  0  0  0  0  0
  -12.4690    4.7490   10.1080 N   0  0  0  0  0  0  0  0  0  0  0  0
  -12.0160    4.1880    8.9920 N   0  0  0  0  0  0  0  0  0  0  0  0
  -10.8400    4.7900    8.7610 N   0  0  0  0  0  0  0  0  0  0  0  0
   -9.9950    4.4790    7.6090 C   0  0  0  0  0  0  0  0  0  0  0  0
   -8.6630    5.2070    7.7200 C   0  0  0  0  0  0  0  0  0  0  0  0
  -10.7490    4.8610    6.3730 C   0  0  0  0  0  0  0  0  0  0  0  0
  -11.0350    6.2020    6.1170 C   0  0  0  0  0  0  0  0  0  0  0  0
  -11.7370    6.5580    4.9650 C   0  0  0  0  0  0  0  0  0  0  0  0
  -12.1550    5.5730    4.0710 C   0  0  0  0  0  0  0  0  0  0  0  0
  -11.8700    4.2310    4.3270 C   0  0  0  0  0  0  0  0  0  0  0  0
  -11.1660    3.8760    5.4790 C   0  0  0  0  0  0  0  0  0  0  0  0
  -12.0160    7.8660    4.7150 O   0  0  0  0  0  0  0  0  0  0  0  0
   -6.8990    7.6510    9.7710 O   0  0  0  0  0  0  0  0  0  0  0  0
   -6.8026    3.0344    5.4423 C   0  0  0  0  0  0  0  0  0  0  0  0
   -6.9825    2.0967    4.4220 C   0  0  0  0  0  0  0  0  0  0  0  0
   -6.0149    1.1174    4.1498 C   0  0  0  0  0  0  0  0  0  0  0  0
   -6.2251    0.1953    3.1198 C   0  0  0  0  0  0  0  0  0  0  0  0
   -7.4008    0.2402    2.3632 C   0  0  0  0  0  0  0  0  0  0  0  0
   -8.3795    1.2065    2.6370 C   0  0  0  0  0  0  0  0  0  0  0  0
   -8.1670    2.1499    3.6566 C   0  0  0  0  0  0  0  0  0  0  0  0
   -9.0748    3.0904    3.9010 O   0  0  0  0  0  0  0  0  0  0  0  0
   -8.9348    3.9999    4.8597 C   0  0  0  0  0  0  0  0  0  0  0  0
   -9.8335    4.8698    5.0082 O   0  0  0  0  0  0  0  0  0  0  0  0
   -9.6204    1.2285    1.7790 C   0  0  0  0  0  0  0  0  0  0  0  0
   -9.9486   -0.1173    1.2645 N   0  0  0  0  0  0  0  0  0  0  0  0
  -10.4282   -1.0244    2.3312 C   0  0  0  0  0  0  0  0  0  0  0  0
  -11.5108   -1.9180    1.7876 C   0  0  0  0  0  0  0  0  0  0  0  0
  -11.2823   -3.2989    1.6581 C   0  0  0  0  0  0  0  0  0  0  0  0
  -12.2811   -4.1353    1.1544 C   0  0  0  0  0  0  0  0  0  0  0  0
  -13.5169   -3.6041    0.7849 C   0  0  0  0  0  0  0  0  0  0  0  0
  -13.7607   -2.2341    0.9153 C   0  0  0  0  0  0  0  0  0  0  0  0
  -12.7579   -1.3767    1.4098 C   0  0  0  0  0  0  0  0  0  0  0  0
  -12.9598    0.0078    1.5334 O   0  0  0  0  0  0  0  0  0  0  0  0
  -14.1694    0.6838    1.2094 C   0  0  0  0  0  0  0  0  0  0  0  0
   -8.7957   -0.6914    0.5371 C   0  0  0  0  0  0  0  0  0  0  0  0
   -7.6104   -0.6917    1.3420 O   0  0  0  0  0  0  0  0  0  0  0  0
  1  3  4  0
  1 14  4  0
  1  2  1  0
  3  4  4  0
  4  5  4  0
  5  6  4  0
  5 22  1  0
  6  7  1  0
  6 14  4  0
  7  8  1  0
  8  9  4  0
  8 12  4  0
  9 10  4  0
 10 11  4  0
 11 12  4  0
 12 13  1  0
 13 14  1  0
 13 15  1  6
 15 16  4  0
 15 20  4  0
 16 17  4  0
 17 18  4  0
 17 21  1  0
 18 19  4  0
 19 20  4  0
 23 24  4  0
 24 25  4  0
 25 26  4  0
 26 27  4  0
 27 28  4  0
 28 29  4  0
 29 30  4  0
 30 31  4  0
 31 32  2  0
 28 33  1  0
 33 34  1  0
 34 35  1  0
 35 36  1  0
 36 37  4  0
 37 38  4  0
 38 39  4  0
 39 40  4  0
 40 41  4  0
 41 42  1  0
 42 43  1  0
 34 44  1  0
 44 45  1  0
 41 36  4  0
 29 24  4  0
 45 27  1  0
  2 23  4  0
  2 31  4  0
M  END
$$$$

     RDKit          3D

 36 40  0  0  0  0  0  0  0  0999 V2000
   -7.6410    4.9930    6.8080 C   0  0  0  0  0  0  0  0  0  1  0  0
   -7.7310    4.0530    5.7140 C   0  0  0  0  0  0  0  0  0  2  0  0
   -6.4520    5.6300    6.8680 N   0  0  0  0  0  0  0  0  0  0  0  0
   -6.2260    6.5240    7.8670 N   0  0  0  0  0  0  0  0  0  0  0  0
   -7.1930    6.7500    8.7820 C   0  0  0  0  0  0  0  0  0  0  0  0
   -8.4240    6.1170    8.7580 C   0  0  0  0  0  0  0  0  0  0  0  0
   -9.3950    6.3570    9.7450 N   0  0  0  0  0  0  0  0  0  0  0  0
  -10.5620    5.6840    9.7600 C   0  0  0  0  0  0  0  0  0  0  0  0
  -11.5770    5.6820   10.5960 N   0  0  0  0  0  0  0  0  0  0  0  0
  -12.4690    4.7490   10.1080 N   0  0  0  0  0  0  0  0  0  0  0  0
  -12.0160    4.1880    8.9920 N   0  0  0  0  0  0  0  0  0  0  0  0
  -10.8400    4.7900    8.7610 N   0  0  0  0  0  0  0  0  0  0  0  0
   -9.9950    4.4790    7.6090 C   0  0  0  0  0  0  0  0  0  0  0  0
   -8.6630    5.2070    7.7200 C   0  0  0  0  0  0  0  0  0  0  0  0
  -10.7490    4.8610    6.3730 C   0  0  0  0  0  0  0  0  0  0  0  0
  -11.0350    6.2020    6.1170 C   0  0  0  0  0  0  0  0  0  0  0  0
  -11.7370    6.5580    4.9650 C   0  0  0  0  0  0  0  0  0  0  0  0
  -12.1550    5.5730    4.0710 C   0  0  0  0  0  0  0  0  0  0  0  0
  -11.8700    4.2310    4.3270 C   0  0  0  0  0  0  0  0  0  0  0  0
  -11.1660    3.8760    5.4790 C   0  0  0  0  0  0  0  0  0  0  0  0
  -12.0160    7.8660    4.7150 O   0  0  0  0  0  0  0  0  0  0  0  0
   -6.8990    7.6510    9.7710 O   0  0  0  0  0  0  0  0  0  0  0  0
   -6.8363    3.2105    5.1917 N   0  0  0  0  0  0  0  0  0  0  0  0
   -7.3783    2.4452    4.2558 N   0  0  0  0  0  0  0  0  0  0  0  0
   -8.6803    2.7770    4.1867 C   0  0  0  0  0  0  0  0  0  0  0  0
   -9.8358    2.0048    3.0515 S   0  0  0  0  0  0  0  0  0  0  0  0
   -9.4745    3.1763    1.7041 C   0  0  0  0  0  0  0  0  0  0  0  0
  -10.3463    2.8717    0.5208 C   0  0  0  0  0  0  0  0  0  0  0  0
  -11.2135    3.7208    0.1772 O   0  0  0  0  0  0  0  0  0  0  0  0
  -10.2411    1.6244   -0.2015 N   0  0  0  0  0  0  0  0  0  0  0  0
   -8.9604    0.9077   -0.3064 C   0  0  0  0  0  0  0  0  0  0  0  0
   -7.9841    1.6636   -1.2037 C   0  0  0  0  0  0  0  0  0  0  0  0
  -11.4314    1.0838   -0.8755 C   0  0  0  0  0  0  0  0  0  0  0  0
  -11.4853    1.5406   -2.3293 C   0  0  0  0  0  0  0  0  0  0  0  0
   -8.9920    3.7536    5.0614 N   0  0  0  0  0  0  0  0  0  0  0  0
  -10.2894    4.4007    5.2441 C   0  0  0  0  0  0  0  0  0  0  0  0
  1  3  4  0
  1 14  4  0
  1  2  1  0
  3  4  4  0
  4  5  4  0
  5  6  4  0
  5 22  1  0
  6  7  1  0
  6 14  4  0
  7  8  1  0
  8  9  4  0
  8 12  4  0
  9 10  4  0
 10 11  4  0
 11 12  4  0
 12 13  1  0
 13 14  1  0
 13 15  1  6
 15 16  4  0
 15 20  4  0
 16 17  4  0
 17 18  4  0
 17 21  1  0
 18 19  4  0
 19 20  4  0
 23 24  4  0
 24 25  4  0
 25 26  1  0
 26 27  1  0
 27 28  1  0
 28 29  2  0
 28 30  1  0
 30 31  1  0
 31 32  1  0
 30 33  1  0
 33 34  1  0
 25 35  4  0
 35 36  1  0
  2 23  4  0
  2 35  4  0
M  END
$$$$

     RDKit          3D

 36 40  0  0  0  0  0  0  0  0999 V2000
   -7.6410    4.9930    6.8080 C   0  0  0  0  0  0  0  0  0  1  0  0
   -7.7310    4.0530    5.7140 C   0  0  0  0  0  0  0  0  0  2  0  0
   -6.4520    5.6300    6.8680 N   0  0  0  0  0  0  0  0  0  0  0  0
   -6.2260    6.5240    7.8670 N   0  0  0  0  0  0  0  0  0  0  0  0
   -7.1930    6.7500    8.7820 C   0  0  0  0  0  0  0  0  0  0  0  0
   -8.4240    6.1170    8.7580 C   0  0  0  0  0  0  0  0  0  0  0  0
   -9.3950    6.3570    9.7450 N   0  0  0  0  0  0  0  0  0  0  0  0
  -10.5620    5.6840    9.7600 C   0  0  0  0  0  0  0  0  0  0  0  0
  -11.5770    5.6820   10.5960 N   0  0  0  0  0  0  0  0  0  0  0  0
  -12.4690    4.7490   10.1080 N   0  0  0  0  0  0  0  0  0  0  0  0
  -12.0160    4.1880    8.9920 N   0  0  0  0  0  0  0  0  0  0  0  0
  -10.8400    4.7900    8.7610 N   0  0  0  0  0  0  0  0  0  0  0  0
   -9.9950    4.4790    7.6090 C   0  0  0  0  0  0  0  0  0  0  0  0
   -8.6630    5.2070    7.7200 C   0  0  0  0  0  0  0  0  0  0  0  0
  -10.7490    4.8610    6.3730 C   0  0  0  0  0  0  0  0  0  0  0  0
  -11.0350    6.2020    6.1170 C   0  0  0  0  0  0  0  0  0  0  0  0
  -11.7370    6.5580    4.9650 C   0  0  0  0  0  0  0  0  0  0  0  0
  -12.1550    5.5730    4.0710 C   0  0  0  0  0  0  0  0  0  0  0  0
  -11.8700    4.2310    4.3270 C   0  0  0  0  0  0  0  0  0  0  0  0
  -11.1660    3.8760    5.4790 C   0  0  0  0  0  0  0  0  0  0  0  0
  -12.0160    7.8660    4.7150 O   0  0  0  0  0  0  0  0  0  0  0  0
   -6.8990    7.6510    9.7710 O   0  0  0  0  0  0  0  0  0  0  0  0
   -6.8446    3.1936    5.2046 N   0  0  0  0  0  0  0  0  0  0  0  0
   -7.3900    2.4354    4.2652 N   0  0  0  0  0  0  0  0  0  0  0  0
   -8.6857    2.7887    4.1812 C   0  0  0  0  0  0  0  0  0  0  0  0
   -9.8415    2.0420    3.0254 S   0  0  0  0  0  0  0  0  0  0  0  0
   -9.4868    3.2348    1.6816 C   0  0  0  0  0  0  0  0  0  0  0  0
   -8.1899    2.9434    0.9677 C   0  0  0  0  0  0  0  0  0  0  0  0
   -7.5497    1.8923    1.2474 O   0  0  0  0  0  0  0  0  0  0  0  0
   -7.6578    3.8571   -0.0191 N   0  0  0  0  0  0  0  0  0  0  0  0
   -8.5224    4.8274   -0.7084 C   0  0  0  0  0  0  0  0  0  0  0  0
   -9.2905    4.1483   -1.8372 C   0  0  0  0  0  0  0  0  0  0  0  0
   -6.2375    3.7735   -0.3918 C   0  0  0  0  0  0  0  0  0  0  0  0
   -5.3595    4.3300    0.7246 C   0  0  0  0  0  0  0  0  0  0  0  0
   -8.9900    3.7714    5.0513 N   0  0  0  0  0  0  0  0  0  0  0  0
  -10.2769    4.4439    5.2204 C   0  0  0  0  0  0  0  0  0  0  0  0
  1  3  4  0
  1 14  4  0
  1  2  1  0
  3  4  4  0
  4  5  4  0
  5  6  4  0
  5 22  1  0
  6  7  1  0
  6 14  4  0
  7  8  1  0
  8  9  4  0
  8 12  4  0
  9 10  4  0
 10 11  4  0
 11 12  4  0
 12 13  1  0
 13 14  1  0
 13 15  1  6
 15 16  4  0
 15 20  4  0
 16 17  4  0
 17 18  4  0
 17 21  1  0
 18 19  4  0
 19 20  4  0
 23 24  4  0
 24 25  4  0
 25 26  1  0
 26 27  1  0
 27 28  1  0
 28 29  2  0
 28 30  1  0
 30 31  1  0
 31 32  1  0
 30 33  1  0
 33 34  1  0
 25 35  4  0
 35 36  1  0
  2 23  4  0
  2 35  4  0
M  END
$$$$

     RDKit          3D

 36 40  0  0  0  0  0  0  0  0999 V2000
   -7.6410    4.9930    6.8080 C   0  0  0  0  0  0  0  0  0  1  0  0
   -7.7310    4.0530    5.7140 C   0  0  0  0  0  0  0  0  0  2  0  0
   -6.4520    5.6300    6.8680 N   0  0  0  0  0  0  0  0  0  0  0  0
   -6.2260    6.5240    7.8670 N   0  0  0  0  0  0  0  0  0  0  0  0
   -7.1930    6.7500    8.7820 C   0  0  0  0  0  0  0  0  0  0  0  0
   -8.4240    6.1170    8.7580 C   0  0  0  0  0  0  0  0  0  0  0  0
   -9.3950    6.3570    9.7450 N   0  0  0  0  0  0  0  0  0  0  0  0
  -10.5620    5.6840    9.7600 C   0  0  0  0  0  0  0  0  0  0  0  0
  -11.5770    5.6820   10.5960 N   0  0  0  0  0  0  0  0  0  0  0  0
  -12.4690    4.7490   10.1080 N   0  0  0  0  0  0  0  0  0  0  0  0
  -12.0160    4.1880    8.9920 N   0  0  0  0  0  0  0  0  0  0  0  0
  -10.8400    4.7900    8.7610 N   0  0  0  0  0  0  0  0  0  0  0  0
   -9.9950    4.4790    7.6090 C   0  0  0  0  0  0  0  0  0  0  0  0
   -8.6630    5.2070    7.7200 C   0  0  0  0  0  0  0  0  0  0  0  0
  -10.7490    4.8610    6.3730 C   0  0  0  0  0  0  0  0  0  0  0  0
  -11.0350    6.2020    6.1170 C   0  0  0  0  0  0  0  0  0  0  0  0
  -11.7370    6.5580    4.9650 C   0  0  0  0  0  0  0  0  0  0  0  0
  -12.1550    5.5730    4.0710 C   0  0  0  0  0  0  0  0  0  0  0  0
  -11.8700    4.2310    4.3270 C   0  0  0  0  0  0  0  0  0  0  0  0
  -11.1660    3.8760    5.4790 C   0  0  0  0  0  0  0  0  0  0  0  0
  -12.0160    7.8660    4.7150 O   0  0  0  0  0  0  0  0  0  0  0  0
   -6.8990    7.6510    9.7710 O   0  0  0  0  0  0  0  0  0  0  0  0
   -6.8592    3.1565    5.2410 N   0  0  0  0  0  0  0  0  0  0  0  0
   -7.4088    2.3956    4.3063 N   0  0  0  0  0  0  0  0  0  0  0  0
   -8.6925    2.7832    4.1919 C   0  0  0  0  0  0  0  0  0  0  0  0
   -9.8511    2.0260    3.0481 S   0  0  0  0  0  0  0  0  0  0  0  0
  -10.5772    0.8883    4.2808 C   0  0  0  0  0  0  0  0  0  0  0  0
   -9.5631   -0.0688    4.8496 C   0  0  0  0  0  0  0  0  0  0  0  0
   -9.1758    0.1229    6.0346 O   0  0  0  0  0  0  0  0  0  0  0  0
   -9.0716   -1.2173    4.1153 N   0  0  0  0  0  0  0  0  0  0  0  0
   -8.3374   -2.2701    4.8343 C   0  0  0  0  0  0  0  0  0  0  0  0
   -9.2919   -3.1079    5.6790 C   0  0  0  0  0  0  0  0  0  0  0  0
   -9.1955   -1.3272    2.6536 C   0  0  0  0  0  0  0  0  0  0  0  0
   -7.9173   -0.8506    1.9696 C   0  0  0  0  0  0  0  0  0  0  0  0
   -8.9826    3.7953    5.0322 N   0  0  0  0  0  0  0  0  0  0  0  0
  -10.2514    4.5073    5.1625 C   0  0  0  0  0  0  0  0  0  0  0  0
  1  3  4  0
  1 14  4  0
  1  2  1  0
  3  4  4  0
  4  5  4  0
  5  6  4  0
  5 22  1  0
  6  7  1  0
  6 14  4  0
  7  8  1  0
  8  9  4  0
  8 12  4  0
  9 10  4  0
 10 11  4  0
 11 12  4  0
 12 13  1  0
 13 14  1  0
 13 15  1  6
 15 16  4  0
 15 20  4  0
 16 17  4  0
 17 18  4  0
 17 21  1  0
 18 19  4  0
 19 20  4  0
 23 24  4  0
 24 25  4  0
 25 26  1  0
 26 27  1  0
 27 28  1  0
 28 29  2  0
 28 30  1  0
 30 31  1  0
 31 32  1  0
 30 33  1  0
 33 34  1  0
 25 35  4  0
 35 36  1  0
  2 23  4  0
  2 35  4  0
M  END
$$$$

     RDKit          3D

 38 43  0  0  0  0  0  0  0  0999 V2000
   -7.6410    4.9930    6.8080 C   0  0  0  0  0  0  0  0  0  1  0  0
   -7.7310    4.0530    5.7140 C   0  0  0  0  0  0  0  0  0  2  0  0
   -6.4520    5.6300    6.8680 N   0  0  0  0  0  0  0  0  0  0  0  0
   -6.2260    6.5240    7.8670 N   0  0  0  0  0  0  0  0  0  0  0  0
   -7.1930    6.7500    8.7820 C   0  0  0  0  0  0  0  0  0  0  0  0
   -8.4240    6.1170    8.7580 C   0  0  0  0  0  0  0  0  0  0  0  0
   -9.3950    6.3570    9.7450 N   0  0  0  0  0  0  0  0  0  0  0  0
  -10.5620    5.6840    9.7600 C   0  0  0  0  0  0  0  0  0  0  0  0
  -11.5770    5.6820   10.5960 N   0  0  0  0  0  0  0  0  0  0  0  0
  -12.4690    4.7490   10.1080 N   0  0  0  0  0  0  0  0  0  0  0  0
  -12.0160    4.1880    8.9920 N   0  0  0  0  0  0  0  0  0  0  0  0
  -10.8400    4.7900    8.7610 N   0  0  0  0  0  0  0  0  0  0  0  0
   -9.9950    4.4790    7.6090 C   0  0  0  0  0  0  0  0  0  0  0  0
   -8.6630    5.2070    7.7200 C   0  0  0  0  0  0  0  0  0  0  0  0
  -10.7490    4.8610    6.3730 C   0  0  0  0  0  0  0  0  0  0  0  0
  -11.0350    6.2020    6.1170 C   0  0  0  0  0  0  0  0  0  0  0  0
  -11.7370    6.5580    4.9650 C   0  0  0  0  0  0  0  0  0  0  0  0
  -12.1550    5.5730    4.0710 C   0  0  0  0  0  0  0  0  0  0  0  0
  -11.8700    4.2310    4.3270 C   0  0  0  0  0  0  0  0  0  0  0  0
  -11.1660    3.8760    5.4790 C   0  0  0  0  0  0  0  0  0  0  0  0
  -12.0160    7.8660    4.7150 O   0  0  0  0  0  0  0  0  0  0  0  0
   -6.8990    7.6510    9.7710 O   0  0  0  0  0  0  0  0  0  0  0  0
   -6.7767    3.2798    5.1697 N   0  0  0  0  0  0  0  0  0  0  0  0
   -7.3105    2.5360    4.2409 O   0  0  0  0  0  0  0  0  0  0  0  0
   -8.5933    2.7158    4.0953 N   0  0  0  0  0  0  0  0  0  0  0  0
   -8.9301    3.6388    5.0123 C   0  0  0  0  0  0  0  0  0  0  0  0
  -10.2192    4.2640    5.1007 N   0  0  0  0  0  0  0  0  0  0  0  0
  -11.4358    3.6745    4.6163 C   0  0  0  0  0  0  0  0  0  0  0  0
  -12.4467    4.4093    4.4523 O   0  0  0  0  0  0  0  0  0  0  0  0
  -11.5312    2.2117    4.2903 C   0  0  0  0  0  0  0  0  0  0  0  0
  -12.8882    1.7795    4.3651 O   0  0  0  0  0  0  0  0  0  0  0  0
  -13.3168    0.4680    4.1129 C   0  0  0  0  0  0  0  0  0  0  0  0
  -12.4251   -0.5628    3.7548 C   0  0  0  0  0  0  0  0  0  0  0  0
  -12.9039   -1.8544    3.5140 C   0  0  0  0  0  0  0  0  0  0  0  0
  -14.2690   -2.1293    3.6272 C   0  0  0  0  0  0  0  0  0  0  0  0
  -15.1600   -1.1119    3.9821 C   0  0  0  0  0  0  0  0  0  0  0  0
  -16.8741   -1.4568    4.1243 Cl  0  0  0  0  0  0  0  0  0  0  0  0
  -14.6836    0.1817    4.2236 C   0  0  0  0  0  0  0  0  0  0  0  0
  1  3  4  0
  1 14  4  0
  1  2  1  0
  3  4  4  0
  4  5  4  0
  5  6  4  0
  5 22  1  0
  6  7  1  0
  6 14  4  0
  7  8  1  0
  8  9  4  0
  8 12  4  0
  9 10  4  0
 10 11  4  0
 11 12  4  0
 12 13  1  0
 13 14  1  0
 13 15  1  6
 15 16  4  0
 15 20  4  0
 16 17  4  0
 17 18  4  0
 17 21  1  0
 18 19  4  0
 19 20  4  0
 23 24  4  0
 24 25  4  0
 25 26  4  0
 26 27  1  0
 27 28  1  0
 28 29  2  0
 28 30  1  0
 30 31  1  0
 31 32  1  0
 32 33  4  0
 33 34  4  0
 34 35  4  0
 35 36  4  0
 36 37  1  0
 36 38  4  0
 38 32  4  0
  2 23  4  0
  2 26  4  0
M  END
$$$$

     RDKit          3D

 38 43  0  0  0  0  0  0  0  0999 V2000
   -7.6410    4.9930    6.8080 C   0  0  0  0  0  0  0  0  0  1  0  0
   -7.7310    4.0530    5.7140 C   0  0  0  0  0  0  0  0  0  2  0  0
   -6.4520    5.6300    6.8680 N   0  0  0  0  0  0  0  0  0  0  0  0
   -6.2260    6.5240    7.8670 N   0  0  0  0  0  0  0  0  0  0  0  0
   -7.1930    6.7500    8.7820 C   0  0  0  0  0  0  0  0  0  0  0  0
   -8.4240    6.1170    8.7580 C   0  0  0  0  0  0  0  0  0  0  0  0
   -9.3950    6.3570    9.7450 N   0  0  0  0  0  0  0  0  0  0  0  0
  -10.5620    5.6840    9.7600 C   0  0  0  0  0  0  0  0  0  0  0  0
  -11.5770    5.6820   10.5960 N   0  0  0  0  0  0  0  0  0  0  0  0
  -12.4690    4.7490   10.1080 N   0  0  0  0  0  0  0  0  0  0  0  0
  -12.0160    4.1880    8.9920 N   0  0  0  0  0  0  0  0  0  0  0  0
  -10.8400    4.7900    8.7610 N   0  0  0  0  0  0  0  0  0  0  0  0
   -9.9950    4.4790    7.6090 C   0  0  0  0  0  0  0  0  0  0  0  0
   -8.6630    5.2070    7.7200 C   0  0  0  0  0  0  0  0  0  0  0  0
  -10.7490    4.8610    6.3730 C   0  0  0  0  0  0  0  0  0  0  0  0
  -11.0350    6.2020    6.1170 C   0  0  0  0  0  0  0  0  0  0  0  0
  -11.7370    6.5580    4.9650 C   0  0  0  0  0  0  0  0  0  0  0  0
  -12.1550    5.5730    4.0710 C   0  0  0  0  0  0  0  0  0  0  0  0
  -11.8700    4.2310    4.3270 C   0  0  0  0  0  0  0  0  0  0  0  0
  -11.1660    3.8760    5.4790 C   0  0  0  0  0  0  0  0  0  0  0  0
  -12.0160    7.8660    4.7150 O   0  0  0  0  0  0  0  0  0  0  0  0
   -6.8990    7.6510    9.7710 O   0  0  0  0  0  0  0  0  0  0  0  0
   -6.9694    2.9238    5.5637 N   0  0  0  0  0  0  0  0  0  0  0  0
   -7.2855    2.1630    4.4930 C   0  0  0  0  0  0  0  0  0  0  0  0
   -6.6118    0.9464    4.1480 N   0  0  0  0  0  0  0  0  0  0  0  0
   -5.3662    0.5315    4.7316 C   0  0  0  0  0  0  0  0  0  0  0  0
   -5.1208   -0.8351    4.9349 C   0  0  0  0  0  0  0  0  0  0  0  0
   -3.9087   -1.2620    5.4859 C   0  0  0  0  0  0  0  0  0  0  0  0
   -2.9246   -0.3279    5.8243 C   0  0  0  0  0  0  0  0  0  0  0  0
   -1.4034   -0.8648    6.5133 Cl  0  0  0  0  0  0  0  0  0  0  0  0
   -3.1506    1.0341    5.6019 C   0  0  0  0  0  0  0  0  0  0  0  0
   -4.3620    1.4633    5.0513 C   0  0  0  0  0  0  0  0  0  0  0  0
   -8.6085    2.7733    3.6577 S   0  0  0  0  0  0  0  0  0  0  0  0
   -8.7961    4.0780    4.7064 C   0  0  0  0  0  0  0  0  0  0  0  0
   -9.7635    5.2030    4.4820 C   0  0  0  0  0  0  0  0  0  0  0  0
   -9.1152    6.2990    3.6976 C   0  0  0  0  0  0  0  0  0  0  0  0
   -8.1877    6.9820    4.2069 O   0  0  0  0  0  0  0  0  0  0  0  0
   -9.5386    6.5728    2.4032 O   0  0  0  0  0  0  0  0  0  0  0  0
  1  3  4  0
  1 14  4  0
  1  2  1  0
  3  4  4  0
  4  5  4  0
  5  6  4  0
  5 22  1  0
  6  7  1  0
  6 14  4  0
  7  8  1  0
  8  9  4  0
  8 12  4  0
  9 10  4  0
 10 11  4  0
 11 12  4  0
 12 13  1  0
 13 14  1  0
 13 15  1  6
 15 16  4  0
 15 20  4  0
 16 17  4  0
 17 18  4  0
 17 21  1  0
 18 19  4  0
 19 20  4  0
 23 24  4  0
 24 25  1  0
 25 26  1  0
 26 27  4  0
 27 28  4  0
 28 29  4  0
 29 30  1  0
 29 31  4  0
 31 32  4  0
 24 33  4  0
 33 34  4  0
 34 35  1  0
 35 36  1  0
 36 37  2  0
 36 38  1  0
 32 26  4  0
  2 23  4  0
  2 34  4  0
M  CHG  1  38  -1
M  END
$$$$

     RDKit          3D

 38 43  0  0  0  0  0  0  0  0999 V2000
   -7.6410    4.9930    6.8080 C   0  0  0  0  0  0  0  0  0  1  0  0
   -7.7310    4.0530    5.7140 C   0  0  0  0  0  0  0  0  0  2  0  0
   -6.4520    5.6300    6.8680 N   0  0  0  0  0  0  0  0  0  0  0  0
   -6.2260    6.5240    7.8670 N   0  0  0  0  0  0  0  0  0  0  0  0
   -7.1930    6.7500    8.7820 C   0  0  0  0  0  0  0  0  0  0  0  0
   -8.4240    6.1170    8.7580 C   0  0  0  0  0  0  0  0  0  0  0  0
   -9.3950    6.3570    9.7450 N   0  0  0  0  0  0  0  0  0  0  0  0
  -10.5620    5.6840    9.7600 C   0  0  0  0  0  0  0  0  0  0  0  0
  -11.5770    5.6820   10.5960 N   0  0  0  0  0  0  0  0  0  0  0  0
  -12.4690    4.7490   10.1080 N   0  0  0  0  0  0  0  0  0  0  0  0
  -12.0160    4.1880    8.9920 N   0  0  0  0  0  0  0  0  0  0  0  0
  -10.8400    4.7900    8.7610 N   0  0  0  0  0  0  0  0  0  0  0  0
   -9.9950    4.4790    7.6090 C   0  0  0  0  0  0  0  0  0  0  0  0
   -8.6630    5.2070    7.7200 C   0  0  0  0  0  0  0  0  0  0  0  0
  -10.7490    4.8610    6.3730 C   0  0  0  0  0  0  0  0  0  0  0  0
  -11.0350    6.2020    6.1170 C   0  0  0  0  0  0  0  0  0  0  0  0
  -11.7370    6.5580    4.9650 C   0  0  0  0  0  0  0  0  0  0  0  0
  -12.1550    5.5730    4.0710 C   0  0  0  0  0  0  0  0  0  0  0  0
  -11.8700    4.2310    4.3270 C   0  0  0  0  0  0  0  0  0  0  0  0
  -11.1660    3.8760    5.4790 C   0  0  0  0  0  0  0  0  0  0  0  0
  -12.0160    7.8660    4.7150 O   0  0  0  0  0  0  0  0  0  0  0  0
   -6.8990    7.6510    9.7710 O   0  0  0  0  0  0  0  0  0  0  0  0
   -6.9736    2.9192    5.5712 N   0  0  0  0  0  0  0  0  0  0  0  0
   -7.2761    2.1624    4.4952 C   0  0  0  0  0  0  0  0  0  0  0  0
   -6.5918    0.9382    4.1971 N   0  0  0  0  0  0  0  0  0  0  0  0
   -6.6952    0.2411    2.9458 C   0  0  0  0  0  0  0  0  0  0  0  0
   -6.7111    0.9353    1.7230 C   0  0  0  0  0  0  0  0  0  0  0  0
   -6.7836    0.2344    0.5152 C   0  0  0  0  0  0  0  0  0  0  0  0
   -6.8243   -1.1634    0.5166 C   0  0  0  0  0  0  0  0  0  0  0  0
   -6.9131   -2.0411   -0.9996 Cl  0  0  0  0  0  0  0  0  0  0  0  0
   -6.7825   -1.8607    1.7281 C   0  0  0  0  0  0  0  0  0  0  0  0
   -6.7094   -1.1618    2.9370 C   0  0  0  0  0  0  0  0  0  0  0  0
   -8.5952    2.7827    3.6500 S   0  0  0  0  0  0  0  0  0  0  0  0
   -8.7861    4.0859    4.6983 C   0  0  0  0  0  0  0  0  0  0  0  0
   -9.7513    5.2114    4.4706 C   0  0  0  0  0  0  0  0  0  0  0  0
   -9.1043    6.2936    3.6664 C   0  0  0  0  0  0  0  0  0  0  0  0
   -9.5022    6.5390    2.4973 O   0  0  0  0  0  0  0  0  0  0  0  0
   -8.0641    7.0382    4.2082 O   0  0  0  0  0  0  0  0  0  0  0  0
  1  3  4  0
  1 14  4  0
  1  2  1  0
  3  4  4  0
  4  5  4  0
  5  6  4  0
  5 22  1  0
  6  7  1  0
  6 14  4  0
  7  8  1  0
  8  9  4  0
  8 12  4  0
  9 10  4  0
 10 11  4  0
 11 12  4  0
 12 13  1  0
 13 14  1  0
 13 15  1  6
 15 16  4  0
 15 20  4  0
 16 17  4  0
 17 18  4  0
 17 21  1  0
 18 19  4  0
 19 20  4  0
 23 24  4  0
 24 25  1  0
 25 26  1  0
 26 27  4  0
 27 28  4  0
 28 29  4  0
 29 30  1  0
 29 31  4  0
 31 32  4  0
 24 33  4  0
 33 34  4  0
 34 35  1  0
 35 36  1  0
 36 37  2  0
 36 38  1  0
 32 26  4  0
  2 23  4  0
  2 34  4  0
M  CHG  1  38  -1
M  END
$$$$

     RDKit          3D

 38 43  0  0  0  0  0  0  0  0999 V2000
   -7.6410    4.9930    6.8080 C   0  0  0  0  0  0  0  0  0  1  0  0
   -7.7310    4.0530    5.7140 C   0  0  0  0  0  0  0  0  0  2  0  0
   -6.4520    5.6300    6.8680 N   0  0  0  0  0  0  0  0  0  0  0  0
   -6.2260    6.5240    7.8670 N   0  0  0  0  0  0  0  0  0  0  0  0
   -7.1930    6.7500    8.7820 C   0  0  0  0  0  0  0  0  0  0  0  0
   -8.4240    6.1170    8.7580 C   0  0  0  0  0  0  0  0  0  0  0  0
   -9.3950    6.3570    9.7450 N   0  0  0  0  0  0  0  0  0  0  0  0
  -10.5620    5.6840    9.7600 C   0  0  0  0  0  0  0  0  0  0  0  0
  -11.5770    5.6820   10.5960 N   0  0  0  0  0  0  0  0  0  0  0  0
  -12.4690    4.7490   10.1080 N   0  0  0  0  0  0  0  0  0  0  0  0
  -12.0160    4.1880    8.9920 N   0  0  0  0  0  0  0  0  0  0  0  0
  -10.8400    4.7900    8.7610 N   0  0  0  0  0  0  0  0  0  0  0  0
   -9.9950    4.4790    7.6090 C   0  0  0  0  0  0  0  0  0  0  0  0
   -8.6630    5.2070    7.7200 C   0  0  0  0  0  0  0  0  0  0  0  0
  -10.7490    4.8610    6.3730 C   0  0  0  0  0  0  0  0  0  0  0  0
  -11.0350    6.2020    6.1170 C   0  0  0  0  0  0  0  0  0  0  0  0
  -11.7370    6.5580    4.9650 C   0  0  0  0  0  0  0  0  0  0  0  0
  -12.1550    5.5730    4.0710 C   0  0  0  0  0  0  0  0  0  0  0  0
  -11.8700    4.2310    4.3270 C   0  0  0  0  0  0  0  0  0  0  0  0
  -11.1660    3.8760    5.4790 C   0  0  0  0  0  0  0  0  0  0  0  0
  -12.0160    7.8660    4.7150 O   0  0  0  0  0  0  0  0  0  0  0  0
   -6.8990    7.6510    9.7710 O   0  0  0  0  0  0  0  0  0  0  0  0
   -6.9588    2.9328    5.5530 N   0  0  0  0  0  0  0  0  0  0  0  0
   -7.2732    2.1692    4.4850 C   0  0  0  0  0  0  0  0  0  0  0  0
   -6.4852    1.0388    4.0887 N   0  0  0  0  0  0  0  0  0  0  0  0
   -6.8974    0.0710    3.1110 C   0  0  0  0  0  0  0  0  0  0  0  0
   -8.2248   -0.3902    3.0548 C   0  0  0  0  0  0  0  0  0  0  0  0
   -8.5973   -1.3533    2.1121 C   0  0  0  0  0  0  0  0  0  0  0  0
   -7.6466   -1.8755    1.2293 C   0  0  0  0  0  0  0  0  0  0  0  0
   -8.1153   -3.0849    0.0482 Cl  0  0  0  0  0  0  0  0  0  0  0  0
   -6.3194   -1.4403    1.2970 C   0  0  0  0  0  0  0  0  0  0  0  0
   -5.9447   -0.4776    2.2393 C   0  0  0  0  0  0  0  0  0  0  0  0
   -8.5735    2.8097    3.6255 S   0  0  0  0  0  0  0  0  0  0  0  0
   -8.7864    4.0891    4.6983 C   0  0  0  0  0  0  0  0  0  0  0  0
   -9.7587    5.2164    4.4846 C   0  0  0  0  0  0  0  0  0  0  0  0
   -9.1221    6.4133    3.8385 C   0  0  0  0  0  0  0  0  0  0  0  0
   -7.9109    6.4054    3.4896 O   0  0  0  0  0  0  0  0  0  0  0  0
   -9.8871    7.5506    3.6144 O   0  0  0  0  0  0  0  0  0  0  0  0
  1  3  4  0
  1 14  4  0
  1  2  1  0
  3  4  4  0
  4  5  4  0
  5  6  4  0
  5 22  1  0
  6  7  1  0
  6 14  4  0
  7  8  1  0
  8  9  4  0
  8 12  4  0
  9 10  4  0
 10 11  4  0
 11 12  4  0
 12 13  1  0
 13 14  1  0
 13 15  1  6
 15 16  4  0
 15 20  4  0
 16 17  4  0
 17 18  4  0
 17 21  1  0
 18 19  4  0
 19 20  4  0
 23 24  4  0
 24 25  1  0
 25 26  1  0
 26 27  4  0
 27 28  4  0
 28 29  4  0
 29 30  1  0
 29 31  4  0
 31 32  4  0
 24 33  4  0
 33 34  4  0
 34 35  1  0
 35 36  1  0
 36 37  2  0
 36 38  1  0
 32 26  4  0
  2 23  4  0
  2 34  4  0
M  CHG  1  38  -1
M  END
$$$$

     RDKit          3D

 47 53  0  0  0  0  0  0  0  0999 V2000
   -7.6410    4.9930    6.8080 C   0  0  0  0  0  0  0  0  0  1  0  0
   -7.7310    4.0530    5.7140 C   0  0  0  0  0  0  0  0  0  2  0  0
   -6.4520    5.6300    6.8680 N   0  0  0  0  0  0  0  0  0  0  0  0
   -6.2260    6.5240    7.8670 N   0  0  0  0  0  0  0  0  0  0  0  0
   -7.1930    6.7500    8.7820 C   0  0  0  0  0  0  0  0  0  0  0  0
   -8.4240    6.1170    8.7580 C   0  0  0  0  0  0  0  0  0  0  0  0
   -9.3950    6.3570    9.7450 N   0  0  0  0  0  0  0  0  0  0  0  0
  -10.5620    5.6840    9.7600 C   0  0  0  0  0  0  0  0  0  0  0  0
  -11.5770    5.6820   10.5960 N   0  0  0  0  0  0  0  0  0  0  0  0
  -12.4690    4.7490   10.1080 N   0  0  0  0  0  0  0  0  0  0  0  0
  -12.0160    4.1880    8.9920 N   0  0  0  0  0  0  0  0  0  0  0  0
  -10.8400    4.7900    8.7610 N   0  0  0  0  0  0  0  0  0  0  0  0
   -9.9950    4.4790    7.6090 C   0  0  0  0  0  0  0  0  0  0  0  0
   -8.6630    5.2070    7.7200 C   0  0  0  0  0  0  0  0  0  0  0  0
  -10.7490    4.8610    6.3730 C   0  0  0  0  0  0  0  0  0  0  0  0
  -11.0350    6.2020    6.1170 C   0  0  0  0  0  0  0  0  0  0  0  0
  -11.7370    6.5580    4.9650 C   0  0  0  0  0  0  0  0  0  0  0  0
  -12.1550    5.5730    4.0710 C   0  0  0  0  0  0  0  0  0  0  0  0
  -11.8700    4.2310    4.3270 C   0  0  0  0  0  0  0  0  0  0  0  0
  -11.1660    3.8760    5.4790 C   0  0  0  0  0  0  0  0  0  0  0  0
  -12.0160    7.8660    4.7150 O   0  0  0  0  0  0  0  0  0  0  0  0
   -6.8990    7.6510    9.7710 O   0  0  0  0  0  0  0  0  0  0  0  0
   -6.8010    3.1681    5.2714 N   0  0  0  0  0  0  0  0  0  0  0  0
   -7.2773    2.4678    4.2411 N   0  0  0  0  0  0  0  0  0  0  0  0
   -8.5364    2.9023    4.0455 C   0  0  0  0  0  0  0  0  0  0  0  0
   -9.4263    2.5143    3.0534 C   0  0  0  0  0  0  0  0  0  0  0  0
  -10.6679    3.1705    3.0158 C   0  0  0  0  0  0  0  0  0  0  0  0
  -10.9595    4.1935    3.9584 C   0  0  0  0  0  0  0  0  0  0  0  0
  -12.1738    4.8944    3.9648 O   0  0  0  0  0  0  0  0  0  0  0  0
  -13.3512    4.5174    3.2522 C   0  0  0  0  0  0  0  0  0  0  0  0
  -13.9843    3.2813    3.8863 C   0  0  0  0  0  0  0  0  0  0  0  0
  -15.2750    3.0072    3.2702 N   0  0  0  0  0  0  0  0  0  0  0  0
  -15.5486    1.8086    2.5294 C   0  0  0  0  0  0  0  0  0  0  0  0
  -14.6053    1.0768    2.1269 O   0  0  0  0  0  0  0  0  0  0  0  0
  -16.9676    1.4266    2.2315 C   0  0  0  0  0  0  0  0  0  0  0  0
  -17.5215    2.2751    1.2261 O   0  0  0  0  0  0  0  0  0  0  0  0
  -17.2715    2.1849   -0.1575 C   0  0  0  0  0  0  0  0  0  0  0  0
  -16.4235    1.1921   -0.6920 C   0  0  0  0  0  0  0  0  0  0  0  0
  -16.2435    1.0705   -2.0647 C   0  0  0  0  0  0  0  0  0  0  0  0
  -16.9232    1.9229   -2.9314 C   0  0  0  0  0  0  0  0  0  0  0  0
  -17.7539    2.9286   -2.4289 C   0  0  0  0  0  0  0  0  0  0  0  0
  -17.9119    3.0942   -1.0368 C   0  0  0  0  0  0  0  0  0  0  0  0
  -18.7968    4.2054   -0.4933 C   0  0  0  0  0  0  0  0  0  0  0  0
  -18.4063    5.5814   -1.0688 C   0  0  0  0  0  0  0  0  0  0  0  0
  -20.2725    3.8922   -0.7558 C   0  0  0  0  0  0  0  0  0  0  0  0
  -10.0190    4.5188    4.8918 N   0  0  0  0  0  0  0  0  0  0  0  0
   -8.8696    3.8497    4.9197 N   0  0  0  0  0  0  0  0  0  0  0  0
  1  3  4  0
  1 14  4  0
  1  2  1  0
  3  4  4  0
  4  5  4  0
  5  6  4  0
  5 22  1  0
  6  7  1  0
  6 14  4  0
  7  8  1  0
  8  9  4  0
  8 12  4  0
  9 10  4  0
 10 11  4  0
 11 12  4  0
 12 13  1  0
 13 14  1  0
 13 15  1  6
 15 16  4  0
 15 20  4  0
 16 17  4  0
 17 18  4  0
 17 21  1  0
 18 19  4  0
 19 20  4  0
 23 24  4  0
 24 25  4  0
 25 26  4  0
 26 27  4  0
 27 28  4  0
 28 29  1  0
 29 30  1  0
 30 31  1  0
 31 32  1  0
 32 33  1  0
 33 34  2  0
 33 35  1  0
 35 36  1  0
 36 37  1  0
 37 38  4  0
 38 39  4  0
 39 40  4  0
 40 41  4  0
 41 42  4  0
 42 43  1  0
 43 44  1  0
 43 45  1  0
 28 46  4  0
 46 47  4  0
 47 25  4  0
 42 37  4  0
  2 23  4  0
  2 47  4  0
M  END
$$$$

     RDKit          3D

 47 52  0  0  0  0  0  0  0  0999 V2000
   -7.6410    4.9930    6.8080 C   0  0  0  0  0  0  0  0  0  1  0  0
   -7.7310    4.0530    5.7140 C   0  0  0  0  0  0  0  0  0  2  0  0
   -6.4520    5.6300    6.8680 N   0  0  0  0  0  0  0  0  0  0  0  0
   -6.2260    6.5240    7.8670 N   0  0  0  0  0  0  0  0  0  0  0  0
   -7.1930    6.7500    8.7820 C   0  0  0  0  0  0  0  0  0  0  0  0
   -8.4240    6.1170    8.7580 C   0  0  0  0  0  0  0  0  0  0  0  0
   -9.3950    6.3570    9.7450 N   0  0  0  0  0  0  0  0  0  0  0  0
  -10.5620    5.6840    9.7600 C   0  0  0  0  0  0  0  0  0  0  0  0
  -11.5770    5.6820   10.5960 N   0  0  0  0  0  0  0  0  0  0  0  0
  -12.4690    4.7490   10.1080 N   0  0  0  0  0  0  0  0  0  0  0  0
  -12.0160    4.1880    8.9920 N   0  0  0  0  0  0  0  0  0  0  0  0
  -10.8400    4.7900    8.7610 N   0  0  0  0  0  0  0  0  0  0  0  0
   -9.9950    4.4790    7.6090 C   0  0  0  0  0  0  0  0  0  0  0  0
   -8.6630    5.2070    7.7200 C   0  0  0  0  0  0  0  0  0  0  0  0
  -10.7490    4.8610    6.3730 C   0  0  0  0  0  0  0  0  0  0  0  0
  -11.0350    6.2020    6.1170 C   0  0  0  0  0  0  0  0  0  0  0  0
  -11.7370    6.5580    4.9650 C   0  0  0  0  0  0  0  0  0  0  0  0
  -12.1550    5.5730    4.0710 C   0  0  0  0  0  0  0  0  0  0  0  0
  -11.8700    4.2310    4.3270 C   0  0  0  0  0  0  0  0  0  0  0  0
  -11.1660    3.8760    5.4790 C   0  0  0  0  0  0  0  0  0  0  0  0
  -12.0160    7.8660    4.7150 O   0  0  0  0  0  0  0  0  0  0  0  0
   -6.8990    7.6510    9.7710 O   0  0  0  0  0  0  0  0  0  0  0  0
   -6.8328    3.0629    5.4433 N   0  0  0  0  0  0  0  0  0  0  0  0
   -7.1815    2.2356    4.4329 C   0  0  0  0  0  0  0  0  0  0  0  0
   -6.3802    1.1073    4.0495 N   0  0  0  0  0  0  0  0  0  0  0  0
   -6.7287    0.1868    3.0016 C   0  0  0  0  0  0  0  0  0  0  0  0
   -7.5465    0.5308    2.1053 O   0  0  0  0  0  0  0  0  0  0  0  0
   -6.1051   -1.1955    2.9769 C   0  0  0  0  0  0  0  0  0  0  0  0
   -4.9500   -1.2900    2.0669 N   0  0  0  0  0  0  0  0  0  0  0  0
   -4.9186   -0.8081    0.7130 C   0  0  0  0  0  0  0  0  0  0  0  0
   -5.4148    0.3176    0.4359 O   0  0  0  0  0  0  0  0  0  0  0  0
   -4.2565   -1.5978   -0.3563 C   0  0  0  0  0  0  0  0  0  0  0  0
   -4.0550   -2.9809   -0.2081 C   0  0  0  0  0  0  0  0  0  0  0  0
   -3.4747   -3.7384   -1.2419 C   0  0  0  0  0  0  0  0  0  0  0  0
   -3.2848   -5.1255   -1.1387 O   0  0  0  0  0  0  0  0  0  0  0  0
   -3.6755   -5.9113   -0.0156 C   0  0  0  0  0  0  0  0  0  0  0  0
   -3.0734   -3.0988   -2.4192 C   0  0  0  0  0  0  0  0  0  0  0  0
   -3.2472   -1.7118   -2.5766 C   0  0  0  0  0  0  0  0  0  0  0  0
   -2.8281   -1.0279   -3.7276 O   0  0  0  0  0  0  0  0  0  0  0  0
   -2.2150   -1.6461   -4.8545 C   0  0  0  0  0  0  0  0  0  0  0  0
   -3.8485   -0.9752   -1.5493 C   0  0  0  0  0  0  0  0  0  0  0  0
   -7.1447   -2.3334    2.7337 C   0  0  0  0  0  0  0  0  0  0  0  0
   -7.6075   -2.4707    1.2726 C   0  0  0  0  0  0  0  0  0  0  0  0
   -6.5985   -3.6831    3.2247 C   0  0  0  0  0  0  0  0  0  0  0  0
   -8.6953    2.6336    3.8048 S   0  0  0  0  0  0  0  0  0  0  0  0
   -8.9024    3.9366    4.8460 C   0  0  0  0  0  0  0  0  0  0  0  0
  -10.1129    4.8153    4.8626 C   0  0  0  0  0  0  0  0  0  0  0  0
  1  3  4  0
  1 14  4  0
  1  2  1  0
  3  4  4  0
  4  5  4  0
  5  6  4  0
  5 22  1  0
  6  7  1  0
  6 14  4  0
  7  8  1  0
  8  9  4  0
  8 12  4  0
  9 10  4  0
 10 11  4  0
 11 12  4  0
 12 13  1  0
 13 14  1  0
 13 15  1  6
 15 16  4  0
 15 20  4  0
 16 17  4  0
 17 18  4  0
 17 21  1  0
 18 19  4  0
 19 20  4  0
 23 24  4  0
 24 25  1  0
 25 26  1  0
 26 27  2  0
 26 28  1  0
 28 29  1  0
 29 30  1  0
 30 31  2  0
 30 32  1  0
 32 33  4  0
 33 34  4  0
 34 35  1  0
 35 36  1  0
 34 37  4  0
 37 38  4  0
 38 39  1  0
 39 40  1  0
 38 41  4  0
 28 42  1  0
 42 43  1  0
 42 44  1  0
 24 45  4  0
 45 46  4  0
 46 47  1  0
 41 32  4  0
  2 23  4  0
  2 46  4  0
M  END
$$$$

     RDKit          3D

 43 49  0  0  0  0  0  0  0  0999 V2000
   -7.6410    4.9930    6.8080 C   0  0  0  0  0  0  0  0  0  1  0  0
   -7.7310    4.0530    5.7140 C   0  0  0  0  0  0  0  0  0  2  0  0
   -6.4520    5.6300    6.8680 N   0  0  0  0  0  0  0  0  0  0  0  0
   -6.2260    6.5240    7.8670 N   0  0  0  0  0  0  0  0  0  0  0  0
   -7.1930    6.7500    8.7820 C   0  0  0  0  0  0  0  0  0  0  0  0
   -8.4240    6.1170    8.7580 C   0  0  0  0  0  0  0  0  0  0  0  0
   -9.3950    6.3570    9.7450 N   0  0  0  0  0  0  0  0  0  0  0  0
  -10.5620    5.6840    9.7600 C   0  0  0  0  0  0  0  0  0  0  0  0
  -11.5770    5.6820   10.5960 N   0  0  0  0  0  0  0  0  0  0  0  0
  -12.4690    4.7490   10.1080 N   0  0  0  0  0  0  0  0  0  0  0  0
  -12.0160    4.1880    8.9920 N   0  0  0  0  0  0  0  0  0  0  0  0
  -10.8400    4.7900    8.7610 N   0  0  0  0  0  0  0  0  0  0  0  0
   -9.9950    4.4790    7.6090 C   0  0  0  0  0  0  0  0  0  0  0  0
   -8.6630    5.2070    7.7200 C   0  0  0  0  0  0  0  0  0  0  0  0
  -10.7490    4.8610    6.3730 C   0  0  0  0  0  0  0  0  0  0  0  0
  -11.0350    6.2020    6.1170 C   0  0  0  0  0  0  0  0  0  0  0  0
  -11.7370    6.5580    4.9650 C   0  0  0  0  0  0  0  0  0  0  0  0
  -12.1550    5.5730    4.0710 C   0  0  0  0  0  0  0  0  0  0  0  0
  -11.8700    4.2310    4.3270 C   0  0  0  0  0  0  0  0  0  0  0  0
  -11.1660    3.8760    5.4790 C   0  0  0  0  0  0  0  0  0  0  0  0
  -12.0160    7.8660    4.7150 O   0  0  0  0  0  0  0  0  0  0  0  0
   -6.8990    7.6510    9.7710 O   0  0  0  0  0  0  0  0  0  0  0  0
   -6.9641    2.9454    5.5409 N   0  0  0  0  0  0  0  0  0  0  0  0
   -7.3361    2.3297    4.4277 N   0  0  0  0  0  0  0  0  0  0  0  0
   -8.3526    3.0428    3.9066 C   0  0  0  0  0  0  0  0  0  0  0  0
   -9.1743    2.6170    2.3669 S   0  0  0  0  0  0  0  0  0  0  0  0
   -7.8129    3.2127    1.3042 C   0  0  0  0  0  0  0  0  0  0  0  0
   -7.7419    4.7124    1.3001 C   0  0  0  0  0  0  0  0  0  0  0  0
   -8.7440    5.3736    0.9189 O   0  0  0  0  0  0  0  0  0  0  0  0
   -6.5734    5.4069    1.7613 N   0  0  0  0  0  0  0  0  0  0  0  0
   -6.6163    6.5517    2.6719 C   0  0  0  0  0  0  0  0  0  0  0  0
   -5.1488    6.8360    3.0706 C   0  0  0  0  0  0  0  0  0  0  0  0
   -4.3774    5.8368    2.2813 C   0  0  0  0  0  0  0  0  0  0  0  0
   -2.9941    5.6894    2.2090 C   0  0  0  0  0  0  0  0  0  0  0  0
   -2.4646    4.7271    1.3352 C   0  0  0  0  0  0  0  0  0  0  0  0
   -3.3201    3.9411    0.5246 C   0  0  0  0  0  0  0  0  0  0  0  0
   -2.7757    2.9809   -0.3988 N   0  0  0  0  0  0  0  0  0  0  0  0
   -1.5441    2.7809   -0.4575 O   0  0  0  0  0  0  0  0  0  0  0  0
   -3.6041    2.2717   -1.2383 O   0  0  0  0  0  0  0  0  0  0  0  0
   -4.7170    4.1209    0.6230 C   0  0  0  0  0  0  0  0  0  0  0  0
   -5.2164    5.0529    1.5402 C   0  0  0  0  0  0  0  0  0  0  0  0
   -8.6490    4.1132    4.6684 N   0  0  0  0  0  0  0  0  0  0  0  0
   -9.7072    5.0994    4.4547 C   0  0  0  0  0  0  0  0  0  0  0  0
  1  3  4  0
  1 14  4  0
  1  2  1  0
  3  4  4  0
  4  5  4  0
  5  6  4  0
  5 22  1  0
  6  7  1  0
  6 14  4  0
  7  8  1  0
  8  9  4  0
  8 12  4  0
  9 10  4  0
 10 11  4  0
 11 12  4  0
 12 13  1  0
 13 14  1  0
 13 15  1  6
 15 16  4  0
 15 20  4  0
 16 17  4  0
 17 18  4  0
 17 21  1  0
 18 19  4  0
 19 20  4  0
 23 24  4  0
 24 25  4  0
 25 26  1  0
 26 27  1  0
 27 28  1  0
 28 29  2  0
 28 30  1  0
 30 31  1  0
 31 32  1  0
 32 33  1  0
 33 34  4  0
 34 35  4  0
 35 36  4  0
 36 37  1  0
 37 38  2  0
 37 39  1  0
 36 40  4  0
 40 41  4  0
 25 42  4  0
 42 43  1  0
 41 30  1  0
 41 33  4  0
  2 23  4  0
  2 42  4  0
M  CHG  2  37   1  39  -1
M  END
$$$$

     RDKit          3D

 44 50  0  0  0  0  0  0  0  0999 V2000
   -7.6410    4.9930    6.8080 C   0  0  0  0  0  0  0  0  0  1  0  0
   -7.7310    4.0530    5.7140 C   0  0  0  0  0  0  0  0  0  2  0  0
   -6.4520    5.6300    6.8680 N   0  0  0  0  0  0  0  0  0  0  0  0
   -6.2260    6.5240    7.8670 N   0  0  0  0  0  0  0  0  0  0  0  0
   -7.1930    6.7500    8.7820 C   0  0  0  0  0  0  0  0  0  0  0  0
   -8.4240    6.1170    8.7580 C   0  0  0  0  0  0  0  0  0  0  0  0
   -9.3950    6.3570    9.7450 N   0  0  0  0  0  0  0  0  0  0  0  0
  -10.5620    5.6840    9.7600 C   0  0  0  0  0  0  0  0  0  0  0  0
  -11.5770    5.6820   10.5960 N   0  0  0  0  0  0  0  0  0  0  0  0
  -12.4690    4.7490   10.1080 N   0  0  0  0  0  0  0  0  0  0  0  0
  -12.0160    4.1880    8.9920 N   0  0  0  0  0  0  0  0  0  0  0  0
  -10.8400    4.7900    8.7610 N   0  0  0  0  0  0  0  0  0  0  0  0
   -9.9950    4.4790    7.6090 C   0  0  0  0  0  0  0  0  0  0  0  0
   -8.6630    5.2070    7.7200 C   0  0  0  0  0  0  0  0  0  0  0  0
  -10.7490    4.8610    6.3730 C   0  0  0  0  0  0  0  0  0  0  0  0
  -11.0350    6.2020    6.1170 C   0  0  0  0  0  0  0  0  0  0  0  0
  -11.7370    6.5580    4.9650 C   0  0  0  0  0  0  0  0  0  0  0  0
  -12.1550    5.5730    4.0710 C   0  0  0  0  0  0  0  0  0  0  0  0
  -11.8700    4.2310    4.3270 C   0  0  0  0  0  0  0  0  0  0  0  0
  -11.1660    3.8760    5.4790 C   0  0  0  0  0  0  0  0  0  0  0  0
  -12.0160    7.8660    4.7150 O   0  0  0  0  0  0  0  0  0  0  0  0
   -6.8990    7.6510    9.7710 O   0  0  0  0  0  0  0  0  0  0  0  0
   -6.8352    3.1003    5.3816 N   0  0  0  0  0  0  0  0  0  0  0  0
   -7.2894    2.3468    4.3907 N   0  0  0  0  0  0  0  0  0  0  0  0
   -6.5343    1.2720    3.7970 C   0  0  0  0  0  0  0  0  0  0  0  0
   -7.1658    0.2765    3.0243 C   0  0  0  0  0  0  0  0  0  0  0  0
   -6.4191   -0.7638    2.4631 C   0  0  0  0  0  0  0  0  0  0  0  0
   -5.0389   -0.8272    2.6677 C   0  0  0  0  0  0  0  0  0  0  0  0
   -4.3177   -1.8378    2.1236 F   0  0  0  0  0  0  0  0  0  0  0  0
   -4.4026    0.1495    3.4365 C   0  0  0  0  0  0  0  0  0  0  0  0
   -5.1442    1.1918    4.0011 C   0  0  0  0  0  0  0  0  0  0  0  0
   -8.5225    2.7645    4.0346 C   0  0  0  0  0  0  0  0  0  0  0  0
   -8.8784    3.8325    4.8415 C   0  0  0  0  0  0  0  0  0  0  0  0
  -10.0958    4.6696    4.7134 C   0  0  0  0  0  0  0  0  0  0  0  0
  -10.1810    5.7565    5.3507 O   0  0  0  0  0  0  0  0  0  0  0  0
  -11.1681    4.2761    3.8431 N   0  0  0  0  0  0  0  0  0  0  0  0
  -12.3744    4.9988    3.7993 N   0  0  0  0  0  0  0  0  0  0  0  0
  -13.3690    4.7797    2.7861 C   0  0  0  0  0  0  0  0  0  0  0  0
  -14.5604    5.1200    3.0168 O   0  0  0  0  0  0  0  0  0  0  0  0
  -13.0435    4.1412    1.4586 C   0  0  0  0  0  0  0  0  0  0  0  0
  -13.1221    2.6176    1.5207 C   0  0  0  0  0  0  0  0  0  0  0  0
  -11.8914    2.1587    0.7818 C   0  0  0  0  0  0  0  0  0  0  0  0
  -11.2802    3.4418    0.2534 C   0  0  0  0  0  0  0  0  0  0  0  0
  -11.7575    4.5148    1.0256 O   0  0  0  0  0  0  0  0  0  0  0  0
  1  3  4  0
  1 14  4  0
  1  2  1  0
  3  4  4  0
  4  5  4  0
  5  6  4  0
  5 22  1  0
  6  7  1  0
  6 14  4  0
  7  8  1  0
  8  9  4  0
  8 12  4  0
  9 10  4  0
 10 11  4  0
 11 12  4  0
 12 13  1  0
 13 14  1  0
 13 15  1  6
 15 16  4  0
 15 20  4  0
 16 17  4  0
 17 18  4  0
 17 21  1  0
 18 19  4  0
 19 20  4  0
 23 24  4  0
 24 25  1  0
 25 26  4  0
 26 27  4  0
 27 28  4  0
 28 29  1  0
 28 30  4  0
 30 31  4  0
 24 32  4  0
 32 33  4  0
 33 34  1  0
 34 35  2  0
 34 36  1  0
 36 37  1  0
 37 38  1  0
 38 39  2  0
 38 40  1  0
 40 41  1  0
 41 42  1  0
 42 43  1  0
 43 44  1  0
 44 40  1  0
 31 25  4  0
  2 23  4  0
  2 33  4  0
M  END
$$$$

     RDKit          3D

 44 50  0  0  0  0  0  0  0  0999 V2000
   -7.6410    4.9930    6.8080 C   0  0  0  0  0  0  0  0  0  1  0  0
   -7.7310    4.0530    5.7140 C   0  0  0  0  0  0  0  0  0  2  0  0
   -6.4520    5.6300    6.8680 N   0  0  0  0  0  0  0  0  0  0  0  0
   -6.2260    6.5240    7.8670 N   0  0  0  0  0  0  0  0  0  0  0  0
   -7.1930    6.7500    8.7820 C   0  0  0  0  0  0  0  0  0  0  0  0
   -8.4240    6.1170    8.7580 C   0  0  0  0  0  0  0  0  0  0  0  0
   -9.3950    6.3570    9.7450 N   0  0  0  0  0  0  0  0  0  0  0  0
  -10.5620    5.6840    9.7600 C   0  0  0  0  0  0  0  0  0  0  0  0
  -11.5770    5.6820   10.5960 N   0  0  0  0  0  0  0  0  0  0  0  0
  -12.4690    4.7490   10.1080 N   0  0  0  0  0  0  0  0  0  0  0  0
  -12.0160    4.1880    8.9920 N   0  0  0  0  0  0  0  0  0  0  0  0
  -10.8400    4.7900    8.7610 N   0  0  0  0  0  0  0  0  0  0  0  0
   -9.9950    4.4790    7.6090 C   0  0  0  0  0  0  0  0  0  0  0  0
   -8.6630    5.2070    7.7200 C   0  0  0  0  0  0  0  0  0  0  0  0
  -10.7490    4.8610    6.3730 C   0  0  0  0  0  0  0  0  0  0  0  0
  -11.0350    6.2020    6.1170 C   0  0  0  0  0  0  0  0  0  0  0  0
  -11.7370    6.5580    4.9650 C   0  0  0  0  0  0  0  0  0  0  0  0
  -12.1550    5.5730    4.0710 C   0  0  0  0  0  0  0  0  0  0  0  0
  -11.8700    4.2310    4.3270 C   0  0  0  0  0  0  0  0  0  0  0  0
  -11.1660    3.8760    5.4790 C   0  0  0  0  0  0  0  0  0  0  0  0
  -12.0160    7.8660    4.7150 O   0  0  0  0  0  0  0  0  0  0  0  0
   -6.8990    7.6510    9.7710 O   0  0  0  0  0  0  0  0  0  0  0  0
   -6.8153    3.1315    5.3470 N   0  0  0  0  0  0  0  0  0  0  0  0
   -7.2796    2.3586    4.3741 N   0  0  0  0  0  0  0  0  0  0  0  0
   -6.5027    1.3038    3.7647 C   0  0  0  0  0  0  0  0  0  0  0  0
   -6.9580    0.6206    2.6170 C   0  0  0  0  0  0  0  0  0  0  0  0
   -6.1848   -0.3947    2.0419 C   0  0  0  0  0  0  0  0  0  0  0  0
   -4.9501   -0.7374    2.5975 C   0  0  0  0  0  0  0  0  0  0  0  0
   -4.2011   -1.7233    2.0410 F   0  0  0  0  0  0  0  0  0  0  0  0
   -4.4883   -0.0689    3.7320 C   0  0  0  0  0  0  0  0  0  0  0  0
   -5.2594    0.9407    4.3158 C   0  0  0  0  0  0  0  0  0  0  0  0
   -8.5479    2.7256    4.0775 C   0  0  0  0  0  0  0  0  0  0  0  0
   -8.9055    3.7812    4.8946 C   0  0  0  0  0  0  0  0  0  0  0  0
  -10.1551    4.5626    4.8007 C   0  0  0  0  0  0  0  0  0  0  0  0
  -10.2111    5.7227    5.2881 O   0  0  0  0  0  0  0  0  0  0  0  0
  -11.3081    4.0012    4.1647 N   0  0  0  0  0  0  0  0  0  0  0  0
  -12.3912    4.7947    3.7487 N   0  0  0  0  0  0  0  0  0  0  0  0
  -12.2068    5.9781    2.9542 C   0  0  0  0  0  0  0  0  0  0  0  0
  -11.0469    6.3225    2.5933 O   0  0  0  0  0  0  0  0  0  0  0  0
  -13.3868    6.8007    2.5169 C   0  0  0  0  0  0  0  0  0  0  0  0
  -13.9970    7.5728    3.6767 C   0  0  0  0  0  0  0  0  0  0  0  0
  -15.4360    7.6806    3.2686 C   0  0  0  0  0  0  0  0  0  0  0  0
  -15.6344    6.4580    2.3848 C   0  0  0  0  0  0  0  0  0  0  0  0
  -14.3785    5.9734    1.9504 O   0  0  0  0  0  0  0  0  0  0  0  0
  1  3  4  0
  1 14  4  0
  1  2  1  0
  3  4  4  0
  4  5  4  0
  5  6  4  0
  5 22  1  0
  6  7  1  0
  6 14  4  0
  7  8  1  0
  8  9  4  0
  8 12  4  0
  9 10  4  0
 10 11  4  0
 11 12  4  0
 12 13  1  0
 13 14  1  0
 13 15  1  6
 15 16  4  0
 15 20  4  0
 16 17  4  0
 17 18  4  0
 17 21  1  0
 18 19  4  0
 19 20  4  0
 23 24  4  0
 24 25  1  0
 25 26  4  0
 26 27  4  0
 27 28  4  0
 28 29  1  0
 28 30  4  0
 30 31  4  0
 24 32  4  0
 32 33  4  0
 33 34  1  0
 34 35  2  0
 34 36  1  0
 36 37  1  0
 37 38  1  0
 38 39  2  0
 38 40  1  0
 40 41  1  0
 41 42  1  0
 42 43  1  0
 43 44  1  0
 44 40  1  0
 31 25  4  0
  2 23  4  0
  2 33  4  0
M  END
$$$$

     RDKit          3D

 44 50  0  0  0  0  0  0  0  0999 V2000
   -7.6410    4.9930    6.8080 C   0  0  0  0  0  0  0  0  0  1  0  0
   -7.7310    4.0530    5.7140 C   0  0  0  0  0  0  0  0  0  2  0  0
   -6.4520    5.6300    6.8680 N   0  0  0  0  0  0  0  0  0  0  0  0
   -6.2260    6.5240    7.8670 N   0  0  0  0  0  0  0  0  0  0  0  0
   -7.1930    6.7500    8.7820 C   0  0  0  0  0  0  0  0  0  0  0  0
   -8.4240    6.1170    8.7580 C   0  0  0  0  0  0  0  0  0  0  0  0
   -9.3950    6.3570    9.7450 N   0  0  0  0  0  0  0  0  0  0  0  0
  -10.5620    5.6840    9.7600 C   0  0  0  0  0  0  0  0  0  0  0  0
  -11.5770    5.6820   10.5960 N   0  0  0  0  0  0  0  0  0  0  0  0
  -12.4690    4.7490   10.1080 N   0  0  0  0  0  0  0  0  0  0  0  0
  -12.0160    4.1880    8.9920 N   0  0  0  0  0  0  0  0  0  0  0  0
  -10.8400    4.7900    8.7610 N   0  0  0  0  0  0  0  0  0  0  0  0
   -9.9950    4.4790    7.6090 C   0  0  0  0  0  0  0  0  0  0  0  0
   -8.6630    5.2070    7.7200 C   0  0  0  0  0  0  0  0  0  0  0  0
  -10.7490    4.8610    6.3730 C   0  0  0  0  0  0  0  0  0  0  0  0
  -11.0350    6.2020    6.1170 C   0  0  0  0  0  0  0  0  0  0  0  0
  -11.7370    6.5580    4.9650 C   0  0  0  0  0  0  0  0  0  0  0  0
  -12.1550    5.5730    4.0710 C   0  0  0  0  0  0  0  0  0  0  0  0
  -11.8700    4.2310    4.3270 C   0  0  0  0  0  0  0  0  0  0  0  0
  -11.1660    3.8760    5.4790 C   0  0  0  0  0  0  0  0  0  0  0  0
  -12.0160    7.8660    4.7150 O   0  0  0  0  0  0  0  0  0  0  0  0
   -6.8990    7.6510    9.7710 O   0  0  0  0  0  0  0  0  0  0  0  0
   -6.9172    2.9969    5.4876 N   0  0  0  0  0  0  0  0  0  0  0  0
   -7.3316    2.3009    4.4389 N   0  0  0  0  0  0  0  0  0  0  0  0
   -6.6403    1.1358    3.9368 C   0  0  0  0  0  0  0  0  0  0  0  0
   -7.1311    0.4028    2.8359 C   0  0  0  0  0  0  0  0  0  0  0  0
   -6.4435   -0.7216    2.3683 C   0  0  0  0  0  0  0  0  0  0  0  0
   -5.2612   -1.1306    2.9883 C   0  0  0  0  0  0  0  0  0  0  0  0
   -4.5987   -2.2222    2.5329 F   0  0  0  0  0  0  0  0  0  0  0  0
   -4.7637   -0.4157    4.0791 C   0  0  0  0  0  0  0  0  0  0  0  0
   -5.4466    0.7090    4.5515 C   0  0  0  0  0  0  0  0  0  0  0  0
   -8.4599    2.8613    3.9503 C   0  0  0  0  0  0  0  0  0  0  0  0
   -8.7746    3.9694    4.7156 C   0  0  0  0  0  0  0  0  0  0  0  0
   -9.8922    4.9139    4.4825 C   0  0  0  0  0  0  0  0  0  0  0  0
  -10.2538    5.6982    5.3979 O   0  0  0  0  0  0  0  0  0  0  0  0
  -10.5963    4.9425    3.2348 N   0  0  0  0  0  0  0  0  0  0  0  0
   -9.9324    4.7398    2.0117 N   0  0  0  0  0  0  0  0  0  0  0  0
  -10.6416    4.5678    0.7775 C   0  0  0  0  0  0  0  0  0  0  0  0
  -10.0342    4.7776   -0.3072 O   0  0  0  0  0  0  0  0  0  0  0  0
  -12.1006    4.1818    0.7570 C   0  0  0  0  0  0  0  0  0  0  0  0
  -12.4311    3.1662   -0.3268 C   0  0  0  0  0  0  0  0  0  0  0  0
  -13.8591    3.4885   -0.6380 C   0  0  0  0  0  0  0  0  0  0  0  0
  -13.9666    4.9610   -0.2835 C   0  0  0  0  0  0  0  0  0  0  0  0
  -12.8941    5.3281    0.5570 O   0  0  0  0  0  0  0  0  0  0  0  0
  1  3  4  0
  1 14  4  0
  1  2  1  0
  3  4  4  0
  4  5  4  0
  5  6  4  0
  5 22  1  0
  6  7  1  0
  6 14  4  0
  7  8  1  0
  8  9  4  0
  8 12  4  0
  9 10  4  0
 10 11  4  0
 11 12  4  0
 12 13  1  0
 13 14  1  0
 13 15  1  6
 15 16  4  0
 15 20  4  0
 16 17  4  0
 17 18  4  0
 17 21  1  0
 18 19  4  0
 19 20  4  0
 23 24  4  0
 24 25  1  0
 25 26  4  0
 26 27  4  0
 27 28  4  0
 28 29  1  0
 28 30  4  0
 30 31  4  0
 24 32  4  0
 32 33  4  0
 33 34  1  0
 34 35  2  0
 34 36  1  0
 36 37  1  0
 37 38  1  0
 38 39  2  0
 38 40  1  0
 40 41  1  0
 41 42  1  0
 42 43  1  0
 43 44  1  0
 44 40  1  0
 31 25  4  0
  2 23  4  0
  2 33  4  0
M  END
$$$$

     RDKit          3D

 37 41  0  0  0  0  0  0  0  0999 V2000
   -7.6410    4.9930    6.8080 C   0  0  0  0  0  0  0  0  0  1  0  0
   -7.7310    4.0530    5.7140 C   0  0  0  0  0  0  0  0  0  2  0  0
   -6.4520    5.6300    6.8680 N   0  0  0  0  0  0  0  0  0  0  0  0
   -6.2260    6.5240    7.8670 N   0  0  0  0  0  0  0  0  0  0  0  0
   -7.1930    6.7500    8.7820 C   0  0  0  0  0  0  0  0  0  0  0  0
   -8.4240    6.1170    8.7580 C   0  0  0  0  0  0  0  0  0  0  0  0
   -9.3950    6.3570    9.7450 N   0  0  0  0  0  0  0  0  0  0  0  0
  -10.5620    5.6840    9.7600 C   0  0  0  0  0  0  0  0  0  0  0  0
  -11.5770    5.6820   10.5960 N   0  0  0  0  0  0  0  0  0  0  0  0
  -12.4690    4.7490   10.1080 N   0  0  0  0  0  0  0  0  0  0  0  0
  -12.0160    4.1880    8.9920 N   0  0  0  0  0  0  0  0  0  0  0  0
  -10.8400    4.7900    8.7610 N   0  0  0  0  0  0  0  0  0  0  0  0
   -9.9950    4.4790    7.6090 C   0  0  0  0  0  0  0  0  0  0  0  0
   -8.6630    5.2070    7.7200 C   0  0  0  0  0  0  0  0  0  0  0  0
  -10.7490    4.8610    6.3730 C   0  0  0  0  0  0  0  0  0  0  0  0
  -11.0350    6.2020    6.1170 C   0  0  0  0  0  0  0  0  0  0  0  0
  -11.7370    6.5580    4.9650 C   0  0  0  0  0  0  0  0  0  0  0  0
  -12.1550    5.5730    4.0710 C   0  0  0  0  0  0  0  0  0  0  0  0
  -11.8700    4.2310    4.3270 C   0  0  0  0  0  0  0  0  0  0  0  0
  -11.1660    3.8760    5.4790 C   0  0  0  0  0  0  0  0  0  0  0  0
  -12.0160    7.8660    4.7150 O   0  0  0  0  0  0  0  0  0  0  0  0
   -6.8990    7.6510    9.7710 O   0  0  0  0  0  0  0  0  0  0  0  0
   -6.7904    3.1903    5.2798 N   0  0  0  0  0  0  0  0  0  0  0  0
   -7.2644    2.4419    4.2960 N   0  0  0  0  0  0  0  0  0  0  0  0
   -6.4969    1.3946    3.6304 C   0  0  0  0  0  0  0  0  0  0  0  0
   -6.6782    0.0651    4.3649 C   0  0  0  0  0  0  0  0  0  0  0  0
   -5.9234   -1.0325    3.6819 C   0  0  0  0  0  0  0  0  0  0  0  0
   -4.6666   -0.9909    3.6120 O   0  0  0  0  0  0  0  0  0  0  0  0
   -6.6068   -2.1095    3.1317 O   0  0  0  0  0  0  0  0  0  0  0  0
   -8.5541    2.7465    4.0605 C   0  0  0  0  0  0  0  0  0  0  0  0
   -8.9222    3.7559    4.9277 C   0  0  0  0  0  0  0  0  0  0  0  0
  -10.2086    4.4687    4.9433 C   0  0  0  0  0  0  0  0  0  0  0  0
  -11.1919    4.0558    4.2073 N   0  0  0  0  0  0  0  0  0  0  0  0
  -12.4304    4.7178    4.1863 N   0  0  0  0  0  0  0  0  0  0  0  0
  -13.5048    4.2450    3.3658 C   0  0  0  0  0  0  0  0  0  0  0  0
  -14.7544    4.9360    3.3656 N   0  0  0  0  0  0  0  0  0  0  0  0
  -13.3181    2.9141    2.4250 S   0  0  0  0  0  0  0  0  0  0  0  0
  1  3  4  0
  1 14  4  0
  1  2  1  0
  3  4  4  0
  4  5  4  0
  5  6  4  0
  5 22  1  0
  6  7  1  0
  6 14  4  0
  7  8  1  0
  8  9  4  0
  8 12  4  0
  9 10  4  0
 10 11  4  0
 11 12  4  0
 12 13  1  0
 13 14  1  0
 13 15  1  6
 15 16  4  0
 15 20  4  0
 16 17  4  0
 17 18  4  0
 17 21  1  0
 18 19  4  0
 19 20  4  0
 23 24  4  0
 24 25  1  0
 25 26  1  0
 26 27  1  0
 27 28  2  0
 27 29  1  0
 24 30  4  0
 30 31  4  0
 31 32  1  0
 32 33  2  3
 33 34  1  0
 34 35  1  0
 35 36  1  0
 35 37  2  0
  2 23  4  0
  2 31  4  0
M  CHG  1  29  -1
M  END
$$$$

     RDKit          3D

 40 45  0  0  0  0  0  0  0  0999 V2000
   -7.6410    4.9930    6.8080 C   0  0  0  0  0  0  0  0  0  1  0  0
   -7.7310    4.0530    5.7140 C   0  0  0  0  0  0  0  0  0  2  0  0
   -6.4520    5.6300    6.8680 N   0  0  0  0  0  0  0  0  0  0  0  0
   -6.2260    6.5240    7.8670 N   0  0  0  0  0  0  0  0  0  0  0  0
   -7.1930    6.7500    8.7820 C   0  0  0  0  0  0  0  0  0  0  0  0
   -8.4240    6.1170    8.7580 C   0  0  0  0  0  0  0  0  0  0  0  0
   -9.3950    6.3570    9.7450 N   0  0  0  0  0  0  0  0  0  0  0  0
  -10.5620    5.6840    9.7600 C   0  0  0  0  0  0  0  0  0  0  0  0
  -11.5770    5.6820   10.5960 N   0  0  0  0  0  0  0  0  0  0  0  0
  -12.4690    4.7490   10.1080 N   0  0  0  0  0  0  0  0  0  0  0  0
  -12.0160    4.1880    8.9920 N   0  0  0  0  0  0  0  0  0  0  0  0
  -10.8400    4.7900    8.7610 N   0  0  0  0  0  0  0  0  0  0  0  0
   -9.9950    4.4790    7.6090 C   0  0  0  0  0  0  0  0  0  0  0  0
   -8.6630    5.2070    7.7200 C   0  0  0  0  0  0  0  0  0  0  0  0
  -10.7490    4.8610    6.3730 C   0  0  0  0  0  0  0  0  0  0  0  0
  -11.0350    6.2020    6.1170 C   0  0  0  0  0  0  0  0  0  0  0  0
  -11.7370    6.5580    4.9650 C   0  0  0  0  0  0  0  0  0  0  0  0
  -12.1550    5.5730    4.0710 C   0  0  0  0  0  0  0  0  0  0  0  0
  -11.8700    4.2310    4.3270 C   0  0  0  0  0  0  0  0  0  0  0  0
  -11.1660    3.8760    5.4790 C   0  0  0  0  0  0  0  0  0  0  0  0
  -12.0160    7.8660    4.7150 O   0  0  0  0  0  0  0  0  0  0  0  0
   -6.8990    7.6510    9.7710 O   0  0  0  0  0  0  0  0  0  0  0  0
   -6.7733    3.2208    5.2557 N   0  0  0  0  0  0  0  0  0  0  0  0
   -7.2470    2.4770    4.2672 N   0  0  0  0  0  0  0  0  0  0  0  0
   -8.5355    2.8249    4.1004 C   0  0  0  0  0  0  0  0  0  0  0  0
   -9.6019    2.0812    2.8657 S   0  0  0  0  0  0  0  0  0  0  0  0
   -9.2010    3.3290    1.5897 C   0  0  0  0  0  0  0  0  0  0  0  0
  -10.1392    3.1960    0.3928 C   0  0  0  0  0  0  0  0  0  0  0  0
   -9.8419    1.9642   -0.4100 C   0  0  0  0  0  0  0  0  0  0  0  0
   -8.9081    1.9862   -1.2595 O   0  0  0  0  0  0  0  0  0  0  0  0
  -10.6122    0.7710   -0.2121 N   0  0  0  0  0  0  0  0  0  0  0  0
  -10.5565   -0.3429   -1.1119 C   0  0  0  0  0  0  0  0  0  0  0  0
  -10.1864   -1.6023   -0.6231 C   0  0  0  0  0  0  0  0  0  0  0  0
  -10.1637   -2.7110   -1.4722 C   0  0  0  0  0  0  0  0  0  0  0  0
  -10.5229   -2.5736   -2.8082 C   0  0  0  0  0  0  0  0  0  0  0  0
  -10.9140   -1.3270   -3.2997 C   0  0  0  0  0  0  0  0  0  0  0  0
  -10.9351   -0.2102   -2.4578 C   0  0  0  0  0  0  0  0  0  0  0  0
  -11.5168    1.3253   -3.1097 Cl  0  0  0  0  0  0  0  0  0  0  0  0
   -8.9080    3.7890    4.9667 N   0  0  0  0  0  0  0  0  0  0  0  0
  -10.2108    4.4459    5.0637 C   0  0  0  0  0  0  0  0  0  0  0  0
  1  3  4  0
  1 14  4  0
  1  2  1  0
  3  4  4  0
  4  5  4  0
  5  6  4  0
  5 22  1  0
  6  7  1  0
  6 14  4  0
  7  8  1  0
  8  9  4  0
  8 12  4  0
  9 10  4  0
 10 11  4  0
 11 12  4  0
 12 13  1  0
 13 14  1  0
 13 15  1  6
 15 16  4  0
 15 20  4  0
 16 17  4  0
 17 18  4  0
 17 21  1  0
 18 19  4  0
 19 20  4  0
 23 24  4  0
 24 25  4  0
 25 26  1  0
 26 27  1  0
 27 28  1  0
 28 29  1  0
 29 30  2  0
 29 31  1  0
 31 32  1  0
 32 33  4  0
 33 34  4  0
 34 35  4  0
 35 36  4  0
 36 37  4  0
 37 38  1  0
 25 39  4  0
 39 40  1  0
 37 32  4  0
  2 23  4  0
  2 39  4  0
M  END
$$$$

     RDKit          3D

 40 45  0  0  0  0  0  0  0  0999 V2000
   -7.6410    4.9930    6.8080 C   0  0  0  0  0  0  0  0  0  1  0  0
   -7.7310    4.0530    5.7140 C   0  0  0  0  0  0  0  0  0  2  0  0
   -6.4520    5.6300    6.8680 N   0  0  0  0  0  0  0  0  0  0  0  0
   -6.2260    6.5240    7.8670 N   0  0  0  0  0  0  0  0  0  0  0  0
   -7.1930    6.7500    8.7820 C   0  0  0  0  0  0  0  0  0  0  0  0
   -8.4240    6.1170    8.7580 C   0  0  0  0  0  0  0  0  0  0  0  0
   -9.3950    6.3570    9.7450 N   0  0  0  0  0  0  0  0  0  0  0  0
  -10.5620    5.6840    9.7600 C   0  0  0  0  0  0  0  0  0  0  0  0
  -11.5770    5.6820   10.5960 N   0  0  0  0  0  0  0  0  0  0  0  0
  -12.4690    4.7490   10.1080 N   0  0  0  0  0  0  0  0  0  0  0  0
  -12.0160    4.1880    8.9920 N   0  0  0  0  0  0  0  0  0  0  0  0
  -10.8400    4.7900    8.7610 N   0  0  0  0  0  0  0  0  0  0  0  0
   -9.9950    4.4790    7.6090 C   0  0  0  0  0  0  0  0  0  0  0  0
   -8.6630    5.2070    7.7200 C   0  0  0  0  0  0  0  0  0  0  0  0
  -10.7490    4.8610    6.3730 C   0  0  0  0  0  0  0  0  0  0  0  0
  -11.0350    6.2020    6.1170 C   0  0  0  0  0  0  0  0  0  0  0  0
  -11.7370    6.5580    4.9650 C   0  0  0  0  0  0  0  0  0  0  0  0
  -12.1550    5.5730    4.0710 C   0  0  0  0  0  0  0  0  0  0  0  0
  -11.8700    4.2310    4.3270 C   0  0  0  0  0  0  0  0  0  0  0  0
  -11.1660    3.8760    5.4790 C   0  0  0  0  0  0  0  0  0  0  0  0
  -12.0160    7.8660    4.7150 O   0  0  0  0  0  0  0  0  0  0  0  0
   -6.8990    7.6510    9.7710 O   0  0  0  0  0  0  0  0  0  0  0  0
   -6.8269    3.1109    5.3710 N   0  0  0  0  0  0  0  0  0  0  0  0
   -7.2743    2.4096    4.3415 N   0  0  0  0  0  0  0  0  0  0  0  0
   -8.4942    2.8926    4.0418 C   0  0  0  0  0  0  0  0  0  0  0  0
   -9.4872    2.2622    2.6866 S   0  0  0  0  0  0  0  0  0  0  0  0
   -8.9073    3.5166    1.4966 C   0  0  0  0  0  0  0  0  0  0  0  0
   -9.3149    3.1113    0.0799 C   0  0  0  0  0  0  0  0  0  0  0  0
   -9.0845    4.2373   -0.8950 C   0  0  0  0  0  0  0  0  0  0  0  0
   -7.9122    4.6742   -1.0521 O   0  0  0  0  0  0  0  0  0  0  0  0
  -10.1428    4.7822   -1.7009 N   0  0  0  0  0  0  0  0  0  0  0  0
  -11.5415    4.6219   -1.4145 C   0  0  0  0  0  0  0  0  0  0  0  0
  -12.0420    4.9167   -0.1354 C   0  0  0  0  0  0  0  0  0  0  0  0
  -13.4052    4.7788    0.1393 C   0  0  0  0  0  0  0  0  0  0  0  0
  -14.2828    4.3623   -0.8642 C   0  0  0  0  0  0  0  0  0  0  0  0
  -13.8002    4.0929   -2.1478 C   0  0  0  0  0  0  0  0  0  0  0  0
  -12.4349    4.2256   -2.4299 C   0  0  0  0  0  0  0  0  0  0  0  0
  -11.8636    3.8652   -4.0538 Cl  0  0  0  0  0  0  0  0  0  0  0  0
   -8.8586    3.8889    4.8756 N   0  0  0  0  0  0  0  0  0  0  0  0
   -9.9936    4.7979    4.7085 C   0  0  0  0  0  0  0  0  0  0  0  0
  1  3  4  0
  1 14  4  0
  1  2  1  0
  3  4  4  0
  4  5  4  0
  5  6  4  0
  5 22  1  0
  6  7  1  0
  6 14  4  0
  7  8  1  0
  8  9  4  0
  8 12  4  0
  9 10  4  0
 10 11  4  0
 11 12  4  0
 12 13  1  0
 13 14  1  0
 13 15  1  6
 15 16  4  0
 15 20  4  0
 16 17  4  0
 17 18  4  0
 17 21  1  0
 18 19  4  0
 19 20  4  0
 23 24  4  0
 24 25  4  0
 25 26  1  0
 26 27  1  0
 27 28  1  0
 28 29  1  0
 29 30  2  0
 29 31  1  0
 31 32  1  0
 32 33  4  0
 33 34  4  0
 34 35  4  0
 35 36  4  0
 36 37  4  0
 37 38  1  0
 25 39  4  0
 39 40  1  0
 37 32  4  0
  2 23  4  0
  2 39  4  0
M  END
$$$$

     RDKit          3D

 40 45  0  0  0  0  0  0  0  0999 V2000
   -7.6410    4.9930    6.8080 C   0  0  0  0  0  0  0  0  0  1  0  0
   -7.7310    4.0530    5.7140 C   0  0  0  0  0  0  0  0  0  2  0  0
   -6.4520    5.6300    6.8680 N   0  0  0  0  0  0  0  0  0  0  0  0
   -6.2260    6.5240    7.8670 N   0  0  0  0  0  0  0  0  0  0  0  0
   -7.1930    6.7500    8.7820 C   0  0  0  0  0  0  0  0  0  0  0  0
   -8.4240    6.1170    8.7580 C   0  0  0  0  0  0  0  0  0  0  0  0
   -9.3950    6.3570    9.7450 N   0  0  0  0  0  0  0  0  0  0  0  0
  -10.5620    5.6840    9.7600 C   0  0  0  0  0  0  0  0  0  0  0  0
  -11.5770    5.6820   10.5960 N   0  0  0  0  0  0  0  0  0  0  0  0
  -12.4690    4.7490   10.1080 N   0  0  0  0  0  0  0  0  0  0  0  0
  -12.0160    4.1880    8.9920 N   0  0  0  0  0  0  0  0  0  0  0  0
  -10.8400    4.7900    8.7610 N   0  0  0  0  0  0  0  0  0  0  0  0
   -9.9950    4.4790    7.6090 C   0  0  0  0  0  0  0  0  0  0  0  0
   -8.6630    5.2070    7.7200 C   0  0  0  0  0  0  0  0  0  0  0  0
  -10.7490    4.8610    6.3730 C   0  0  0  0  0  0  0  0  0  0  0  0
  -11.0350    6.2020    6.1170 C   0  0  0  0  0  0  0  0  0  0  0  0
  -11.7370    6.5580    4.9650 C   0  0  0  0  0  0  0  0  0  0  0  0
  -12.1550    5.5730    4.0710 C   0  0  0  0  0  0  0  0  0  0  0  0
  -11.8700    4.2310    4.3270 C   0  0  0  0  0  0  0  0  0  0  0  0
  -11.1660    3.8760    5.4790 C   0  0  0  0  0  0  0  0  0  0  0  0
  -12.0160    7.8660    4.7150 O   0  0  0  0  0  0  0  0  0  0  0  0
   -6.8990    7.6510    9.7710 O   0  0  0  0  0  0  0  0  0  0  0  0
   -6.8121    3.1490    5.3155 N   0  0  0  0  0  0  0  0  0  0  0  0
   -7.2787    2.4490    4.2912 N   0  0  0  0  0  0  0  0  0  0  0  0
   -8.5250    2.8949    4.0501 C   0  0  0  0  0  0  0  0  0  0  0  0
   -9.5599    2.2753    2.7242 S   0  0  0  0  0  0  0  0  0  0  0  0
  -10.3182    0.9667    3.7516 C   0  0  0  0  0  0  0  0  0  0  0  0
  -11.5381    0.3663    3.0510 C   0  0  0  0  0  0  0  0  0  0  0  0
  -11.1640   -0.2724    1.7448 C   0  0  0  0  0  0  0  0  0  0  0  0
  -10.4510   -1.3133    1.7462 O   0  0  0  0  0  0  0  0  0  0  0  0
  -11.6197    0.2981    0.5085 N   0  0  0  0  0  0  0  0  0  0  0  0
  -11.0159    0.0252   -0.7703 C   0  0  0  0  0  0  0  0  0  0  0  0
   -9.6311   -0.2037   -0.8760 C   0  0  0  0  0  0  0  0  0  0  0  0
   -9.0436   -0.4364   -2.1228 C   0  0  0  0  0  0  0  0  0  0  0  0
   -9.8291   -0.4416   -3.2765 C   0  0  0  0  0  0  0  0  0  0  0  0
  -11.2007   -0.1969   -3.1888 C   0  0  0  0  0  0  0  0  0  0  0  0
  -11.7984    0.0410   -1.9445 C   0  0  0  0  0  0  0  0  0  0  0  0
  -13.5324    0.3323   -1.8892 Cl  0  0  0  0  0  0  0  0  0  0  0  0
   -8.8718    3.8823    4.8967 N   0  0  0  0  0  0  0  0  0  0  0  0
  -10.1227    4.6394    4.9195 C   0  0  0  0  0  0  0  0  0  0  0  0
  1  3  4  0
  1 14  4  0
  1  2  1  0
  3  4  4  0
  4  5  4  0
  5  6  4  0
  5 22  1  0
  6  7  1  0
  6 14  4  0
  7  8  1  0
  8  9  4  0
  8 12  4  0
  9 10  4  0
 10 11  4  0
 11 12  4  0
 12 13  1  0
 13 14  1  0
 13 15  1  6
 15 16  4  0
 15 20  4  0
 16 17  4  0
 17 18  4  0
 17 21  1  0
 18 19  4  0
 19 20  4  0
 23 24  4  0
 24 25  4  0
 25 26  1  0
 26 27  1  0
 27 28  1  0
 28 29  1  0
 29 30  2  0
 29 31  1  0
 31 32  1  0
 32 33  4  0
 33 34  4  0
 34 35  4  0
 35 36  4  0
 36 37  4  0
 37 38  1  0
 25 39  4  0
 39 40  1  0
 37 32  4  0
  2 23  4  0
  2 39  4  0
M  END
$$$$

     RDKit          3D

 47 54  0  0  0  0  0  0  0  0999 V2000
   -7.6410    4.9930    6.8080 C   0  0  0  0  0  0  0  0  0  1  0  0
   -7.7310    4.0530    5.7140 C   0  0  0  0  0  0  0  0  0  2  0  0
   -6.4520    5.6300    6.8680 N   0  0  0  0  0  0  0  0  0  0  0  0
   -6.2260    6.5240    7.8670 N   0  0  0  0  0  0  0  0  0  0  0  0
   -7.1930    6.7500    8.7820 C   0  0  0  0  0  0  0  0  0  0  0  0
   -8.4240    6.1170    8.7580 C   0  0  0  0  0  0  0  0  0  0  0  0
   -9.3950    6.3570    9.7450 N   0  0  0  0  0  0  0  0  0  0  0  0
  -10.5620    5.6840    9.7600 C   0  0  0  0  0  0  0  0  0  0  0  0
  -11.5770    5.6820   10.5960 N   0  0  0  0  0  0  0  0  0  0  0  0
  -12.4690    4.7490   10.1080 N   0  0  0  0  0  0  0  0  0  0  0  0
  -12.0160    4.1880    8.9920 N   0  0  0  0  0  0  0  0  0  0  0  0
  -10.8400    4.7900    8.7610 N   0  0  0  0  0  0  0  0  0  0  0  0
   -9.9950    4.4790    7.6090 C   0  0  0  0  0  0  0  0  0  0  0  0
   -8.6630    5.2070    7.7200 C   0  0  0  0  0  0  0  0  0  0  0  0
  -10.7490    4.8610    6.3730 C   0  0  0  0  0  0  0  0  0  0  0  0
  -11.0350    6.2020    6.1170 C   0  0  0  0  0  0  0  0  0  0  0  0
  -11.7370    6.5580    4.9650 C   0  0  0  0  0  0  0  0  0  0  0  0
  -12.1550    5.5730    4.0710 C   0  0  0  0  0  0  0  0  0  0  0  0
  -11.8700    4.2310    4.3270 C   0  0  0  0  0  0  0  0  0  0  0  0
  -11.1660    3.8760    5.4790 C   0  0  0  0  0  0  0  0  0  0  0  0
  -12.0160    7.8660    4.7150 O   0  0  0  0  0  0  0  0  0  0  0  0
   -6.8990    7.6510    9.7710 O   0  0  0  0  0  0  0  0  0  0  0  0
   -6.8555    3.0716    5.4039 N   0  0  0  0  0  0  0  0  0  0  0  0
   -7.2690    2.4275    4.3227 N   0  0  0  0  0  0  0  0  0  0  0  0
   -8.4409    2.9828    3.9601 C   0  0  0  0  0  0  0  0  0  0  0  0
   -9.3267    2.5108    2.4700 S   0  0  0  0  0  0  0  0  0  0  0  0
  -10.5140    1.4030    3.3115 C   0  0  0  0  0  0  0  0  0  0  0  0
   -9.8156    0.1322    3.8004 C   0  0  0  0  0  0  0  0  0  0  0  0
  -11.6228    1.0767    2.3505 C   0  0  0  0  0  0  0  0  0  0  0  0
  -12.4231    1.9979    1.7779 N   0  0  0  0  0  0  0  0  0  0  0  0
  -13.2548    1.3332    0.9921 N   0  0  0  0  0  0  0  0  0  0  0  0
  -12.9330    0.0281    1.1162 C   0  0  0  0  0  0  0  0  0  1  0  0
  -13.6101   -1.0757    0.4081 C   0  0  0  0  0  0  0  0  0  2  0  0
  -14.6931   -0.8246   -0.4544 C   0  0  0  0  0  0  0  0  0  0  0  0
  -15.3255   -1.8798   -1.1203 C   0  0  0  0  0  0  0  0  0  0  0  0
  -14.8753   -3.1975   -0.9458 C   0  0  0  0  0  0  0  0  0  0  0  0
  -15.5677   -4.3364   -1.6348 C   0  0  0  0  0  0  0  0  0  0  0  0
  -13.8068   -3.4520   -0.0706 C   0  0  0  0  0  0  0  0  0  0  0  0
  -13.1751   -2.3983    0.5963 C   0  0  0  0  0  0  0  0  0  0  0  0
  -11.9340   -0.1336    1.9484 O   0  0  0  0  0  0  0  0  0  0  0  0
   -8.8034    3.9760    4.7986 N   0  0  0  0  0  0  0  0  0  0  0  0
   -9.9088    4.9250    4.6315 C   0  0  0  0  0  0  0  0  0  0  0  0
   -9.4141    6.2228    3.9717 C   0  0  0  0  0  0  0  0  0  0  0  0
  -10.5480    7.2218    3.7881 C   0  0  0  0  0  0  0  0  0  0  0  0
  -10.9833    6.9822    2.3763 C   0  0  0  0  0  0  0  0  0  0  0  0
   -9.7308    6.4356    1.7187 C   0  0  0  0  0  0  0  0  0  0  0  0
   -8.8574    5.9326    2.7068 O   0  0  0  0  0  0  0  0  0  0  0  0
  1  3  4  0
  1 14  4  0
  1  2  1  0
  3  4  4  0
  4  5  4  0
  5  6  4  0
  5 22  1  0
  6  7  1  0
  6 14  4  0
  7  8  1  0
  8  9  4  0
  8 12  4  0
  9 10  4  0
 10 11  4  0
 11 12  4  0
 12 13  1  0
 13 14  1  0
 13 15  1  6
 15 16  4  0
 15 20  4  0
 16 17  4  0
 17 18  4  0
 17 21  1  0
 18 19  4  0
 19 20  4  0
 23 24  4  0
 24 25  4  0
 25 26  1  0
 26 27  1  0
 27 28  1  0
 27 29  1  0
 29 30  4  0
 30 31  4  0
 31 32  4  0
 32 33  1  0
 33 34  4  0
 34 35  4  0
 35 36  4  0
 36 37  1  0
 36 38  4  0
 38 39  4  0
 32 40  4  0
 25 41  4  0
 41 42  1  0
 42 43  1  0
 43 44  1  0
 44 45  1  0
 45 46  1  0
 46 47  1  0
 47 43  1  0
 40 29  4  0
 39 33  4  0
  2 23  4  0
  2 41  4  0
M  END
$$$$

     RDKit          3D

 47 54  0  0  0  0  0  0  0  0999 V2000
   -7.6410    4.9930    6.8080 C   0  0  0  0  0  0  0  0  0  1  0  0
   -7.7310    4.0530    5.7140 C   0  0  0  0  0  0  0  0  0  2  0  0
   -6.4520    5.6300    6.8680 N   0  0  0  0  0  0  0  0  0  0  0  0
   -6.2260    6.5240    7.8670 N   0  0  0  0  0  0  0  0  0  0  0  0
   -7.1930    6.7500    8.7820 C   0  0  0  0  0  0  0  0  0  0  0  0
   -8.4240    6.1170    8.7580 C   0  0  0  0  0  0  0  0  0  0  0  0
   -9.3950    6.3570    9.7450 N   0  0  0  0  0  0  0  0  0  0  0  0
  -10.5620    5.6840    9.7600 C   0  0  0  0  0  0  0  0  0  0  0  0
  -11.5770    5.6820   10.5960 N   0  0  0  0  0  0  0  0  0  0  0  0
  -12.4690    4.7490   10.1080 N   0  0  0  0  0  0  0  0  0  0  0  0
  -12.0160    4.1880    8.9920 N   0  0  0  0  0  0  0  0  0  0  0  0
  -10.8400    4.7900    8.7610 N   0  0  0  0  0  0  0  0  0  0  0  0
   -9.9950    4.4790    7.6090 C   0  0  0  0  0  0  0  0  0  0  0  0
   -8.6630    5.2070    7.7200 C   0  0  0  0  0  0  0  0  0  0  0  0
  -10.7490    4.8610    6.3730 C   0  0  0  0  0  0  0  0  0  0  0  0
  -11.0350    6.2020    6.1170 C   0  0  0  0  0  0  0  0  0  0  0  0
  -11.7370    6.5580    4.9650 C   0  0  0  0  0  0  0  0  0  0  0  0
  -12.1550    5.5730    4.0710 C   0  0  0  0  0  0  0  0  0  0  0  0
  -11.8700    4.2310    4.3270 C   0  0  0  0  0  0  0  0  0  0  0  0
  -11.1660    3.8760    5.4790 C   0  0  0  0  0  0  0  0  0  0  0  0
  -12.0160    7.8660    4.7150 O   0  0  0  0  0  0  0  0  0  0  0  0
   -6.8990    7.6510    9.7710 O   0  0  0  0  0  0  0  0  0  0  0  0
   -6.8075    3.1295    5.3754 N   0  0  0  0  0  0  0  0  0  0  0  0
   -7.2726    2.3544    4.4094 N   0  0  0  0  0  0  0  0  0  0  0  0
   -8.5181    2.7803    4.1300 C   0  0  0  0  0  0  0  0  0  0  0  0
   -9.6073    1.8753    3.0221 S   0  0  0  0  0  0  0  0  0  0  0  0
   -9.2930    2.8681    1.5140 C   0  0  0  0  0  0  0  0  0  0  0  0
   -7.8362    2.7652    1.0657 C   0  0  0  0  0  0  0  0  0  0  0  0
  -10.1930    2.3975    0.4119 C   0  0  0  0  0  0  0  0  0  0  0  0
  -10.4950    3.1257   -0.6810 N   0  0  0  0  0  0  0  0  0  0  0  0
  -11.2998    2.3763   -1.4172 N   0  0  0  0  0  0  0  0  0  0  0  0
  -11.4566    1.2157   -0.7467 C   0  0  0  0  0  0  0  0  0  1  0  0
  -12.2713    0.0777   -1.2153 C   0  0  0  0  0  0  0  0  0  2  0  0
  -12.9563    0.1326   -2.4373 C   0  0  0  0  0  0  0  0  0  0  0  0
  -13.6903   -0.9723   -2.8877 C   0  0  0  0  0  0  0  0  0  0  0  0
  -13.7485   -2.1471   -2.1231 C   0  0  0  0  0  0  0  0  0  0  0  0
  -14.5560   -3.3242   -2.5869 C   0  0  0  0  0  0  0  0  0  0  0  0
  -13.0793   -2.1970   -0.8936 C   0  0  0  0  0  0  0  0  0  0  0  0
  -12.3468   -1.0929   -0.4425 C   0  0  0  0  0  0  0  0  0  0  0  0
  -10.7825    1.2265    0.3766 O   0  0  0  0  0  0  0  0  0  0  0  0
   -8.8753    3.8331    4.9020 N   0  0  0  0  0  0  0  0  0  0  0  0
  -10.1326    4.6003    4.8316 C   0  0  0  0  0  0  0  0  0  0  0  0
   -9.9446    6.0770    4.4048 C   0  0  0  0  0  0  0  0  0  0  0  0
   -9.0714    6.2731    3.1785 C   0  0  0  0  0  0  0  0  0  0  0  0
   -8.5183    7.6481    3.3845 C   0  0  0  0  0  0  0  0  0  0  0  0
   -8.6136    7.8538    4.8867 C   0  0  0  0  0  0  0  0  0  0  0  0
   -9.4233    6.8512    5.4562 O   0  0  0  0  0  0  0  0  0  0  0  0
  1  3  4  0
  1 14  4  0
  1  2  1  0
  3  4  4  0
  4  5  4  0
  5  6  4  0
  5 22  1  0
  6  7  1  0
  6 14  4  0
  7  8  1  0
  8  9  4  0
  8 12  4  0
  9 10  4  0
 10 11  4  0
 11 12  4  0
 12 13  1  0
 13 14  1  0
 13 15  1  6
 15 16  4  0
 15 20  4  0
 16 17  4  0
 17 18  4  0
 17 21  1  0
 18 19  4  0
 19 20  4  0
 23 24  4  0
 24 25  4  0
 25 26  1  0
 26 27  1  0
 27 28  1  0
 27 29  1  0
 29 30  4  0
 30 31  4  0
 31 32  4  0
 32 33  1  0
 33 34  4  0
 34 35  4  0
 35 36  4  0
 36 37  1  0
 36 38  4  0
 38 39  4  0
 32 40  4  0
 25 41  4  0
 41 42  1  0
 42 43  1  0
 43 44  1  0
 44 45  1  0
 45 46  1  0
 46 47  1  0
 47 43  1  0
 40 29  4  0
 39 33  4  0
  2 23  4  0
  2 41  4  0
M  END
$$$$

     RDKit          3D

 42 48  0  0  0  0  0  0  0  0999 V2000
   -7.6410    4.9930    6.8080 C   0  0  0  0  0  0  0  0  0  1  0  0
   -7.7310    4.0530    5.7140 C   0  0  0  0  0  0  0  0  0  2  0  0
   -6.4520    5.6300    6.8680 N   0  0  0  0  0  0  0  0  0  0  0  0
   -6.2260    6.5240    7.8670 N   0  0  0  0  0  0  0  0  0  0  0  0
   -7.1930    6.7500    8.7820 C   0  0  0  0  0  0  0  0  0  0  0  0
   -8.4240    6.1170    8.7580 C   0  0  0  0  0  0  0  0  0  0  0  0
   -9.3950    6.3570    9.7450 N   0  0  0  0  0  0  0  0  0  0  0  0
  -10.5620    5.6840    9.7600 C   0  0  0  0  0  0  0  0  0  0  0  0
  -11.5770    5.6820   10.5960 N   0  0  0  0  0  0  0  0  0  0  0  0
  -12.4690    4.7490   10.1080 N   0  0  0  0  0  0  0  0  0  0  0  0
  -12.0160    4.1880    8.9920 N   0  0  0  0  0  0  0  0  0  0  0  0
  -10.8400    4.7900    8.7610 N   0  0  0  0  0  0  0  0  0  0  0  0
   -9.9950    4.4790    7.6090 C   0  0  0  0  0  0  0  0  0  0  0  0
   -8.6630    5.2070    7.7200 C   0  0  0  0  0  0  0  0  0  0  0  0
  -10.7490    4.8610    6.3730 C   0  0  0  0  0  0  0  0  0  0  0  0
  -11.0350    6.2020    6.1170 C   0  0  0  0  0  0  0  0  0  0  0  0
  -11.7370    6.5580    4.9650 C   0  0  0  0  0  0  0  0  0  0  0  0
  -12.1550    5.5730    4.0710 C   0  0  0  0  0  0  0  0  0  0  0  0
  -11.8700    4.2310    4.3270 C   0  0  0  0  0  0  0  0  0  0  0  0
  -11.1660    3.8760    5.4790 C   0  0  0  0  0  0  0  0  0  0  0  0
  -12.0160    7.8660    4.7150 O   0  0  0  0  0  0  0  0  0  0  0  0
   -6.8990    7.6510    9.7710 O   0  0  0  0  0  0  0  0  0  0  0  0
   -6.7816    3.1955    5.2878 N   0  0  0  0  0  0  0  0  0  0  0  0
   -7.2624    2.4671    4.2932 N   0  0  0  0  0  0  0  0  0  0  0  0
   -6.4542    1.5210    3.5248 C   0  0  0  0  0  0  0  0  0  0  0  0
   -5.6734    2.2377    2.5146 N   0  0  0  0  0  0  0  0  0  0  0  0
   -4.5888    3.1094    2.7974 C   0  0  0  0  0  0  0  0  0  0  0  0
   -3.8593    3.1909    3.9865 C   0  0  0  0  0  0  0  0  0  0  0  0
   -2.8276    4.1378    4.0770 C   0  0  0  0  0  0  0  0  0  0  0  0
   -2.5304    4.9886    2.9835 C   0  0  0  0  0  0  0  0  0  0  0  0
   -1.4734    5.9604    3.0772 N   0  0  0  0  0  0  0  0  0  0  0  0
   -0.8001    6.0704    4.1227 O   0  0  0  0  0  0  0  0  0  0  0  0
   -1.1912    6.7903    2.0164 O   0  0  0  0  0  0  0  0  0  0  0  0
   -3.2859    4.8711    1.7965 C   0  0  0  0  0  0  0  0  0  0  0  0
   -4.3066    3.9216    1.7362 C   0  0  0  0  0  0  0  0  0  0  0  0
   -5.2257    3.6417    0.6006 C   0  0  0  0  0  0  0  0  0  0  0  0
   -6.1473    2.5161    1.1529 C   0  0  0  0  0  0  0  0  0  0  0  0
   -6.0790    1.2531    0.2910 C   0  0  0  0  0  0  0  0  0  0  0  0
   -8.5388    2.8476    4.0765 C   0  0  0  0  0  0  0  0  0  0  0  0
   -9.5230    2.2113    2.9234 S   0  0  0  0  0  0  0  0  0  0  0  0
   -8.8974    3.8261    4.9350 N   0  0  0  0  0  0  0  0  0  0  0  0
  -10.1738    4.5393    5.0009 C   0  0  0  0  0  0  0  0  0  0  0  0
  1  3  4  0
  1 14  4  0
  1  2  1  0
  3  4  4  0
  4  5  4  0
  5  6  4  0
  5 22  1  0
  6  7  1  0
  6 14  4  0
  7  8  1  0
  8  9  4  0
  8 12  4  0
  9 10  4  0
 10 11  4  0
 11 12  4  0
 12 13  1  0
 13 14  1  0
 13 15  1  6
 15 16  4  0
 15 20  4  0
 16 17  4  0
 17 18  4  0
 17 21  1  0
 18 19  4  0
 19 20  4  0
 23 24  4  0
 24 25  1  0
 25 26  1  0
 26 27  1  0
 27 28  4  0
 28 29  4  0
 29 30  4  0
 30 31  1  0
 31 32  2  0
 31 33  1  0
 30 34  4  0
 34 35  4  0
 35 36  1  0
 36 37  1  0
 37 38  1  0
 24 39  4  0
 39 40  2  0
 39 41  4  0
 41 42  1  0
 37 26  1  0
 35 27  4  0
  2 23  4  0
  2 41  4  0
M  CHG  2  31   1  33  -1
M  END
$$$$

     RDKit          3D

 42 48  0  0  0  0  0  0  0  0999 V2000
   -7.6410    4.9930    6.8080 C   0  0  0  0  0  0  0  0  0  1  0  0
   -7.7310    4.0530    5.7140 C   0  0  0  0  0  0  0  0  0  2  0  0
   -6.4520    5.6300    6.8680 N   0  0  0  0  0  0  0  0  0  0  0  0
   -6.2260    6.5240    7.8670 N   0  0  0  0  0  0  0  0  0  0  0  0
   -7.1930    6.7500    8.7820 C   0  0  0  0  0  0  0  0  0  0  0  0
   -8.4240    6.1170    8.7580 C   0  0  0  0  0  0  0  0  0  0  0  0
   -9.3950    6.3570    9.7450 N   0  0  0  0  0  0  0  0  0  0  0  0
  -10.5620    5.6840    9.7600 C   0  0  0  0  0  0  0  0  0  0  0  0
  -11.5770    5.6820   10.5960 N   0  0  0  0  0  0  0  0  0  0  0  0
  -12.4690    4.7490   10.1080 N   0  0  0  0  0  0  0  0  0  0  0  0
  -12.0160    4.1880    8.9920 N   0  0  0  0  0  0  0  0  0  0  0  0
  -10.8400    4.7900    8.7610 N   0  0  0  0  0  0  0  0  0  0  0  0
   -9.9950    4.4790    7.6090 C   0  0  0  0  0  0  0  0  0  0  0  0
   -8.6630    5.2070    7.7200 C   0  0  0  0  0  0  0  0  0  0  0  0
  -10.7490    4.8610    6.3730 C   0  0  0  0  0  0  0  0  0  0  0  0
  -11.0350    6.2020    6.1170 C   0  0  0  0  0  0  0  0  0  0  0  0
  -11.7370    6.5580    4.9650 C   0  0  0  0  0  0  0  0  0  0  0  0
  -12.1550    5.5730    4.0710 C   0  0  0  0  0  0  0  0  0  0  0  0
  -11.8700    4.2310    4.3270 C   0  0  0  0  0  0  0  0  0  0  0  0
  -11.1660    3.8760    5.4790 C   0  0  0  0  0  0  0  0  0  0  0  0
  -12.0160    7.8660    4.7150 O   0  0  0  0  0  0  0  0  0  0  0  0
   -6.8990    7.6510    9.7710 O   0  0  0  0  0  0  0  0  0  0  0  0
   -6.7892    3.1785    5.3005 N   0  0  0  0  0  0  0  0  0  0  0  0
   -7.2751    2.4519    4.3065 N   0  0  0  0  0  0  0  0  0  0  0  0
   -6.5079    1.4252    3.6045 C   0  0  0  0  0  0  0  0  0  0  0  0
   -6.3193    1.7957    2.1971 N   0  0  0  0  0  0  0  0  0  0  0  0
   -6.6628    0.9868    1.0785 C   0  0  0  0  0  0  0  0  0  0  0  0
   -7.5421   -0.1015    1.0514 C   0  0  0  0  0  0  0  0  0  0  0  0
   -7.7522   -0.7665   -0.1665 C   0  0  0  0  0  0  0  0  0  0  0  0
   -7.0898   -0.3447   -1.3436 C   0  0  0  0  0  0  0  0  0  0  0  0
   -7.3102   -1.0331   -2.5880 N   0  0  0  0  0  0  0  0  0  0  0  0
   -6.7288   -0.6660   -3.6303 O   0  0  0  0  0  0  0  0  0  0  0  0
   -8.1651   -2.1096   -2.6495 O   0  0  0  0  0  0  0  0  0  0  0  0
   -6.2133    0.7608   -1.2794 C   0  0  0  0  0  0  0  0  0  0  0  0
   -6.0254    1.4046   -0.0560 C   0  0  0  0  0  0  0  0  0  0  0  0
   -5.1544    2.5749    0.2278 C   0  0  0  0  0  0  0  0  0  0  0  0
   -5.3866    2.8388    1.7432 C   0  0  0  0  0  0  0  0  0  0  0  0
   -5.9683    4.2360    1.9810 C   0  0  0  0  0  0  0  0  0  0  0  0
   -8.5507    2.8344    4.0920 C   0  0  0  0  0  0  0  0  0  0  0  0
   -9.5455    2.1796    2.9601 S   0  0  0  0  0  0  0  0  0  0  0  0
   -8.8987    3.8285    4.9358 N   0  0  0  0  0  0  0  0  0  0  0  0
  -10.1725    4.5467    4.9986 C   0  0  0  0  0  0  0  0  0  0  0  0
  1  3  4  0
  1 14  4  0
  1  2  1  0
  3  4  4  0
  4  5  4  0
  5  6  4  0
  5 22  1  0
  6  7  1  0
  6 14  4  0
  7  8  1  0
  8  9  4  0
  8 12  4  0
  9 10  4  0
 10 11  4  0
 11 12  4  0
 12 13  1  0
 13 14  1  0
 13 15  1  6
 15 16  4  0
 15 20  4  0
 16 17  4  0
 17 18  4  0
 17 21  1  0
 18 19  4  0
 19 20  4  0
 23 24  4  0
 24 25  1  0
 25 26  1  0
 26 27  1  0
 27 28  4  0
 28 29  4  0
 29 30  4  0
 30 31  1  0
 31 32  2  0
 31 33  1  0
 30 34  4  0
 34 35  4  0
 35 36  1  0
 36 37  1  0
 37 38  1  0
 24 39  4  0
 39 40  2  0
 39 41  4  0
 41 42  1  0
 37 26  1  0
 35 27  4  0
  2 23  4  0
  2 41  4  0
M  CHG  2  31   1  33  -1
M  END
$$$$

     RDKit          3D

 42 48  0  0  0  0  0  0  0  0999 V2000
   -7.6410    4.9930    6.8080 C   0  0  0  0  0  0  0  0  0  1  0  0
   -7.7310    4.0530    5.7140 C   0  0  0  0  0  0  0  0  0  2  0  0
   -6.4520    5.6300    6.8680 N   0  0  0  0  0  0  0  0  0  0  0  0
   -6.2260    6.5240    7.8670 N   0  0  0  0  0  0  0  0  0  0  0  0
   -7.1930    6.7500    8.7820 C   0  0  0  0  0  0  0  0  0  0  0  0
   -8.4240    6.1170    8.7580 C   0  0  0  0  0  0  0  0  0  0  0  0
   -9.3950    6.3570    9.7450 N   0  0  0  0  0  0  0  0  0  0  0  0
  -10.5620    5.6840    9.7600 C   0  0  0  0  0  0  0  0  0  0  0  0
  -11.5770    5.6820   10.5960 N   0  0  0  0  0  0  0  0  0  0  0  0
  -12.4690    4.7490   10.1080 N   0  0  0  0  0  0  0  0  0  0  0  0
  -12.0160    4.1880    8.9920 N   0  0  0  0  0  0  0  0  0  0  0  0
  -10.8400    4.7900    8.7610 N   0  0  0  0  0  0  0  0  0  0  0  0
   -9.9950    4.4790    7.6090 C   0  0  0  0  0  0  0  0  0  0  0  0
   -8.6630    5.2070    7.7200 C   0  0  0  0  0  0  0  0  0  0  0  0
  -10.7490    4.8610    6.3730 C   0  0  0  0  0  0  0  0  0  0  0  0
  -11.0350    6.2020    6.1170 C   0  0  0  0  0  0  0  0  0  0  0  0
  -11.7370    6.5580    4.9650 C   0  0  0  0  0  0  0  0  0  0  0  0
  -12.1550    5.5730    4.0710 C   0  0  0  0  0  0  0  0  0  0  0  0
  -11.8700    4.2310    4.3270 C   0  0  0  0  0  0  0  0  0  0  0  0
  -11.1660    3.8760    5.4790 C   0  0  0  0  0  0  0  0  0  0  0  0
  -12.0160    7.8660    4.7150 O   0  0  0  0  0  0  0  0  0  0  0  0
   -6.8990    7.6510    9.7710 O   0  0  0  0  0  0  0  0  0  0  0  0
   -6.7845    3.1850    5.2953 N   0  0  0  0  0  0  0  0  0  0  0  0
   -7.2792    2.4305    4.3261 N   0  0  0  0  0  0  0  0  0  0  0  0
   -6.5092    1.3893    3.6469 C   0  0  0  0  0  0  0  0  0  0  0  0
   -5.9889    0.4361    4.6321 N   0  0  0  0  0  0  0  0  0  0  0  0
   -4.6567    0.3925    5.1317 C   0  0  0  0  0  0  0  0  0  0  0  0
   -3.5318    1.0595    4.6300 C   0  0  0  0  0  0  0  0  0  0  0  0
   -2.3006    0.8913    5.2867 C   0  0  0  0  0  0  0  0  0  0  0  0
   -2.1981    0.0634    6.4310 C   0  0  0  0  0  0  0  0  0  0  0  0
   -0.9331   -0.1014    7.0979 N   0  0  0  0  0  0  0  0  0  0  0  0
   -0.8455   -0.7920    8.1348 O   0  0  0  0  0  0  0  0  0  0  0  0
    0.2024    0.4994    6.6020 O   0  0  0  0  0  0  0  0  0  0  0  0
   -3.3546   -0.5971    6.9061 C   0  0  0  0  0  0  0  0  0  0  0  0
   -4.5657   -0.4104    6.2354 C   0  0  0  0  0  0  0  0  0  0  0  0
   -5.8947   -0.9942    6.5753 C   0  0  0  0  0  0  0  0  0  0  0  0
   -6.8420   -0.3876    5.5008 C   0  0  0  0  0  0  0  0  0  0  0  0
   -7.5555   -1.4747    4.6902 C   0  0  0  0  0  0  0  0  0  0  0  0
   -8.5633    2.7963    4.1227 C   0  0  0  0  0  0  0  0  0  0  0  0
   -9.5743    2.1084    3.0217 S   0  0  0  0  0  0  0  0  0  0  0  0
   -8.9099    3.8010    4.9555 N   0  0  0  0  0  0  0  0  0  0  0  0
  -10.1963    4.4967    5.0333 C   0  0  0  0  0  0  0  0  0  0  0  0
  1  3  4  0
  1 14  4  0
  1  2  1  0
  3  4  4  0
  4  5  4  0
  5  6  4  0
  5 22  1  0
  6  7  1  0
  6 14  4  0
  7  8  1  0
  8  9  4  0
  8 12  4  0
  9 10  4  0
 10 11  4  0
 11 12  4  0
 12 13  1  0
 13 14  1  0
 13 15  1  6
 15 16  4  0
 15 20  4  0
 16 17  4  0
 17 18  4  0
 17 21  1  0
 18 19  4  0
 19 20  4  0
 23 24  4  0
 24 25  1  0
 25 26  1  0
 26 27  1  0
 27 28  4  0
 28 29  4  0
 29 30  4  0
 30 31  1  0
 31 32  2  0
 31 33  1  0
 30 34  4  0
 34 35  4  0
 35 36  1  0
 36 37  1  0
 37 38  1  0
 24 39  4  0
 39 40  2  0
 39 41  4  0
 41 42  1  0
 37 26  1  0
 35 27  4  0
  2 23  4  0
  2 41  4  0
M  CHG  2  31   1  33  -1
M  END
$$$$

     RDKit          3D

 41 47  0  0  0  0  0  0  0  0999 V2000
   -7.6410    4.9930    6.8080 C   0  0  0  0  0  0  0  0  0  1  0  0
   -7.7310    4.0530    5.7140 C   0  0  0  0  0  0  0  0  0  2  0  0
   -6.4520    5.6300    6.8680 N   0  0  0  0  0  0  0  0  0  0  0  0
   -6.2260    6.5240    7.8670 N   0  0  0  0  0  0  0  0  0  0  0  0
   -7.1930    6.7500    8.7820 C   0  0  0  0  0  0  0  0  0  0  0  0
   -8.4240    6.1170    8.7580 C   0  0  0  0  0  0  0  0  0  0  0  0
   -9.3950    6.3570    9.7450 N   0  0  0  0  0  0  0  0  0  0  0  0
  -10.5620    5.6840    9.7600 C   0  0  0  0  0  0  0  0  0  0  0  0
  -11.5770    5.6820   10.5960 N   0  0  0  0  0  0  0  0  0  0  0  0
  -12.4690    4.7490   10.1080 N   0  0  0  0  0  0  0  0  0  0  0  0
  -12.0160    4.1880    8.9920 N   0  0  0  0  0  0  0  0  0  0  0  0
  -10.8400    4.7900    8.7610 N   0  0  0  0  0  0  0  0  0  0  0  0
   -9.9950    4.4790    7.6090 C   0  0  0  0  0  0  0  0  0  0  0  0
   -8.6630    5.2070    7.7200 C   0  0  0  0  0  0  0  0  0  0  0  0
  -10.7490    4.8610    6.3730 C   0  0  0  0  0  0  0  0  0  0  0  0
  -11.0350    6.2020    6.1170 C   0  0  0  0  0  0  0  0  0  0  0  0
  -11.7370    6.5580    4.9650 C   0  0  0  0  0  0  0  0  0  0  0  0
  -12.1550    5.5730    4.0710 C   0  0  0  0  0  0  0  0  0  0  0  0
  -11.8700    4.2310    4.3270 C   0  0  0  0  0  0  0  0  0  0  0  0
  -11.1660    3.8760    5.4790 C   0  0  0  0  0  0  0  0  0  0  0  0
  -12.0160    7.8660    4.7150 O   0  0  0  0  0  0  0  0  0  0  0  0
   -6.8990    7.6510    9.7710 O   0  0  0  0  0  0  0  0  0  0  0  0
   -6.8563    3.0830    5.3671 N   0  0  0  0  0  0  0  0  0  0  0  0
   -7.4409    2.3852    4.3781 C   0  0  0  0  0  0  0  0  0  0  0  0
   -6.9037    1.3192    3.6605 C   0  0  0  0  0  0  0  0  0  0  0  0
   -7.6929    0.7509    2.6438 C   0  0  0  0  0  0  0  0  0  0  0  0
   -8.9815    1.2605    2.3690 C   0  0  0  0  0  0  0  0  0  0  0  0
   -9.4929    2.3406    3.1102 C   0  0  0  0  0  0  0  0  0  0  0  0
   -8.6867    2.8755    4.1172 C   0  0  0  0  0  0  0  0  0  0  0  0
   -8.9339    3.9090    4.9409 N   0  0  0  0  0  0  0  0  0  0  0  0
  -10.0659    4.8402    4.8644 C   0  0  0  0  0  0  0  0  0  0  0  0
   -9.9521    5.7097    3.6393 C   0  0  0  0  0  0  0  0  0  0  0  0
  -10.9328    5.6609    2.6370 C   0  0  0  0  0  0  0  0  0  0  0  0
  -10.8256    6.4724    1.5040 C   0  0  0  0  0  0  0  0  0  0  0  0
   -9.7375    7.3485    1.3539 C   0  0  0  0  0  0  0  0  0  0  0  0
   -9.6366    8.2141    0.1585 C   0  0  0  0  0  0  0  0  0  0  0  0
   -8.6186    8.9412   -0.0128 O   0  0  0  0  0  0  0  0  0  0  0  0
  -10.6788    8.2353   -0.7758 O   0  0  0  0  0  0  0  0  0  0  0  0
  -10.6464    9.0409   -1.9479 C   0  0  0  0  0  0  0  0  0  0  0  0
   -8.7567    7.3956    2.3609 C   0  0  0  0  0  0  0  0  0  0  0  0
   -8.8663    6.5856    3.4947 C   0  0  0  0  0  0  0  0  0  0  0  0
  1  3  4  0
  1 14  4  0
  1  2  1  0
  3  4  4  0
  4  5  4  0
  5  6  4  0
  5 22  1  0
  6  7  1  0
  6 14  4  0
  7  8  1  0
  8  9  4  0
  8 12  4  0
  9 10  4  0
 10 11  4  0
 11 12  4  0
 12 13  1  0
 13 14  1  0
 13 15  1  6
 15 16  4  0
 15 20  4  0
 16 17  4  0
 17 18  4  0
 17 21  1  0
 18 19  4  0
 19 20  4  0
 23 24  4  0
 24 25  4  0
 25 26  4  0
 26 27  4  0
 27 28  4  0
 28 29  4  0
 29 30  4  0
 30 31  1  0
 31 32  1  0
 32 33  4  0
 33 34  4  0
 34 35  4  0
 35 36  1  0
 36 37  2  0
 36 38  1  0
 38 39  1  0
 35 40  4  0
 40 41  4  0
 41 32  4  0
 29 24  4  0
  2 23  4  0
  2 30  4  0
M  END
$$$$

     RDKit          3D

 39 45  0  0  0  0  0  0  0  0999 V2000
   -7.6410    4.9930    6.8080 C   0  0  0  0  0  0  0  0  0  1  0  0
   -7.7310    4.0530    5.7140 C   0  0  0  0  0  0  0  0  0  2  0  0
   -6.4520    5.6300    6.8680 N   0  0  0  0  0  0  0  0  0  0  0  0
   -6.2260    6.5240    7.8670 N   0  0  0  0  0  0  0  0  0  0  0  0
   -7.1930    6.7500    8.7820 C   0  0  0  0  0  0  0  0  0  0  0  0
   -8.4240    6.1170    8.7580 C   0  0  0  0  0  0  0  0  0  0  0  0
   -9.3950    6.3570    9.7450 N   0  0  0  0  0  0  0  0  0  0  0  0
  -10.5620    5.6840    9.7600 C   0  0  0  0  0  0  0  0  0  0  0  0
  -11.5770    5.6820   10.5960 N   0  0  0  0  0  0  0  0  0  0  0  0
  -12.4690    4.7490   10.1080 N   0  0  0  0  0  0  0  0  0  0  0  0
  -12.0160    4.1880    8.9920 N   0  0  0  0  0  0  0  0  0  0  0  0
  -10.8400    4.7900    8.7610 N   0  0  0  0  0  0  0  0  0  0  0  0
   -9.9950    4.4790    7.6090 C   0  0  0  0  0  0  0  0  0  0  0  0
   -8.6630    5.2070    7.7200 C   0  0  0  0  0  0  0  0  0  0  0  0
  -10.7490    4.8610    6.3730 C   0  0  0  0  0  0  0  0  0  0  0  0
  -11.0350    6.2020    6.1170 C   0  0  0  0  0  0  0  0  0  0  0  0
  -11.7370    6.5580    4.9650 C   0  0  0  0  0  0  0  0  0  0  0  0
  -12.1550    5.5730    4.0710 C   0  0  0  0  0  0  0  0  0  0  0  0
  -11.8700    4.2310    4.3270 C   0  0  0  0  0  0  0  0  0  0  0  0
  -11.1660    3.8760    5.4790 C   0  0  0  0  0  0  0  0  0  0  0  0
  -12.0160    7.8660    4.7150 O   0  0  0  0  0  0  0  0  0  0  0  0
   -6.8990    7.6510    9.7710 O   0  0  0  0  0  0  0  0  0  0  0  0
   -6.8903    2.9860    5.6111 N   0  0  0  0  0  0  0  0  0  0  0  0
   -6.9699    2.0414    4.6761 N   0  0  0  0  0  0  0  0  0  0  0  0
   -7.9491    2.0389    3.7376 C   0  0  0  0  0  0  0  0  0  0  0  0
   -7.9537    0.9960    2.7524 N   0  0  0  0  0  0  0  0  0  0  0  0
   -7.7719    1.2263    1.3423 C   0  0  0  0  0  0  0  0  0  0  0  0
   -7.9790    0.1700    0.4426 C   0  0  0  0  0  0  0  0  0  0  0  0
   -7.8200    0.3679   -0.9310 C   0  0  0  0  0  0  0  0  0  0  0  0
   -7.4415    1.6196   -1.4207 C   0  0  0  0  0  0  0  0  0  0  0  0
   -7.2014    2.6803   -0.5352 C   0  0  0  0  0  0  0  0  0  0  0  0
   -6.8279    4.0346   -1.0616 C   0  0  0  0  0  0  0  0  0  0  0  0
   -7.3775    2.4837    0.8434 C   0  0  0  0  0  0  0  0  0  0  0  0
   -8.9298    3.0520    3.7623 C   0  0  0  0  0  0  0  0  0  0  0  0
  -10.0035    3.0678    2.8499 C   0  0  0  0  0  0  0  0  0  0  0  0
  -10.9319    4.1092    2.8685 C   0  0  0  0  0  0  0  0  0  0  0  0
  -10.8060    5.1434    3.7938 C   0  0  0  0  0  0  0  0  0  0  0  0
   -9.7656    5.1314    4.7240 C   0  0  0  0  0  0  0  0  0  0  0  0
   -8.8320    4.0733    4.7410 C   0  0  0  0  0  0  0  0  0  0  0  0
  1  3  4  0
  1 14  4  0
  1  2  1  0
  3  4  4  0
  4  5  4  0
  5  6  4  0
  5 22  1  0
  6  7  1  0
  6 14  4  0
  7  8  1  0
  8  9  4  0
  8 12  4  0
  9 10  4  0
 10 11  4  0
 11 12  4  0
 12 13  1  0
 13 14  1  0
 13 15  1  6
 15 16  4  0
 15 20  4  0
 16 17  4  0
 17 18  4  0
 17 21  1  0
 18 19  4  0
 19 20  4  0
 23 24  4  0
 24 25  4  0
 25 26  1  0
 26 27  1  0
 27 28  4  0
 28 29  4  0
 29 30  4  0
 30 31  4  0
 31 32  1  0
 31 33  4  0
 25 34  4  0
 34 35  4  0
 35 36  4  0
 36 37  4  0
 37 38  4  0
 38 39  4  0
 33 27  4  0
 39 34  4  0
  2 23  4  0
  2 39  4  0
M  END
$$$$

     RDKit          3D

 36 41  0  0  0  0  0  0  0  0999 V2000
   -7.6410    4.9930    6.8080 C   0  0  0  0  0  0  0  0  0  1  0  0
   -7.7310    4.0530    5.7140 C   0  0  0  0  0  0  0  0  0  2  0  0
   -6.4520    5.6300    6.8680 N   0  0  0  0  0  0  0  0  0  0  0  0
   -6.2260    6.5240    7.8670 N   0  0  0  0  0  0  0  0  0  0  0  0
   -7.1930    6.7500    8.7820 C   0  0  0  0  0  0  0  0  0  0  0  0
   -8.4240    6.1170    8.7580 C   0  0  0  0  0  0  0  0  0  0  0  0
   -9.3950    6.3570    9.7450 N   0  0  0  0  0  0  0  0  0  0  0  0
  -10.5620    5.6840    9.7600 C   0  0  0  0  0  0  0  0  0  0  0  0
  -11.5770    5.6820   10.5960 N   0  0  0  0  0  0  0  0  0  0  0  0
  -12.4690    4.7490   10.1080 N   0  0  0  0  0  0  0  0  0  0  0  0
  -12.0160    4.1880    8.9920 N   0  0  0  0  0  0  0  0  0  0  0  0
  -10.8400    4.7900    8.7610 N   0  0  0  0  0  0  0  0  0  0  0  0
   -9.9950    4.4790    7.6090 C   0  0  0  0  0  0  0  0  0  0  0  0
   -8.6630    5.2070    7.7200 C   0  0  0  0  0  0  0  0  0  0  0  0
  -10.7490    4.8610    6.3730 C   0  0  0  0  0  0  0  0  0  0  0  0
  -11.0350    6.2020    6.1170 C   0  0  0  0  0  0  0  0  0  0  0  0
  -11.7370    6.5580    4.9650 C   0  0  0  0  0  0  0  0  0  0  0  0
  -12.1550    5.5730    4.0710 C   0  0  0  0  0  0  0  0  0  0  0  0
  -11.8700    4.2310    4.3270 C   0  0  0  0  0  0  0  0  0  0  0  0
  -11.1660    3.8760    5.4790 C   0  0  0  0  0  0  0  0  0  0  0  0
  -12.0160    7.8660    4.7150 O   0  0  0  0  0  0  0  0  0  0  0  0
   -6.8990    7.6510    9.7710 O   0  0  0  0  0  0  0  0  0  0  0  0
   -6.7685    3.2397    5.2396 N   0  0  0  0  0  0  0  0  0  0  0  0
   -7.2194    2.4940    4.2408 N   0  0  0  0  0  0  0  0  0  0  0  0
   -6.4006    1.5436    3.5272 C   0  0  0  0  0  0  0  0  0  0  0  0
   -5.1387    1.1829    4.0360 C   0  0  0  0  0  0  0  0  0  0  0  0
   -4.3333    0.2653    3.3564 C   0  0  0  0  0  0  0  0  0  0  0  0
   -4.7720   -0.3026    2.1587 C   0  0  0  0  0  0  0  0  0  0  0  0
   -3.9810   -1.1917    1.5077 F   0  0  0  0  0  0  0  0  0  0  0  0
   -6.0210    0.0499    1.6357 C   0  0  0  0  0  0  0  0  0  0  0  0
   -6.5778   -0.6517    0.1255 Cl  0  0  0  0  0  0  0  0  0  0  0  0
   -6.8309    0.9684    2.3142 C   0  0  0  0  0  0  0  0  0  0  0  0
   -8.5237    2.7725    4.0276 C   0  0  0  0  0  0  0  0  0  0  0  0
   -8.9178    3.7428    4.9259 C   0  0  0  0  0  0  0  0  0  0  0  0
  -10.2750    4.3772    4.9893 C   0  0  0  0  0  0  0  0  0  0  0  0
  -10.1478    5.7706    5.0381 O   0  0  0  0  0  0  0  0  0  0  0  0
  1  3  4  0
  1 14  4  0
  1  2  1  0
  3  4  4  0
  4  5  4  0
  5  6  4  0
  5 22  1  0
  6  7  1  0
  6 14  4  0
  7  8  1  0
  8  9  4  0
  8 12  4  0
  9 10  4  0
 10 11  4  0
 11 12  4  0
 12 13  1  0
 13 14  1  0
 13 15  1  6
 15 16  4  0
 15 20  4  0
 16 17  4  0
 17 18  4  0
 17 21  1  0
 18 19  4  0
 19 20  4  0
 23 24  4  0
 24 25  1  0
 25 26  4  0
 26 27  4  0
 27 28  4  0
 28 29  1  0
 28 30  4  0
 30 31  1  0
 30 32  4  0
 24 33  4  0
 33 34  4  0
 34 35  1  0
 35 36  1  0
 32 25  4  0
  2 23  4  0
  2 34  4  0
M  END
$$$$

     RDKit          3D

 36 42  0  0  0  0  0  0  0  0999 V2000
   -7.6410    4.9930    6.8080 C   0  0  0  0  0  0  0  0  0  1  0  0
   -7.7310    4.0530    5.7140 C   0  0  0  0  0  0  0  0  0  2  0  0
   -6.4520    5.6300    6.8680 N   0  0  0  0  0  0  0  0  0  0  0  0
   -6.2260    6.5240    7.8670 N   0  0  0  0  0  0  0  0  0  0  0  0
   -7.1930    6.7500    8.7820 C   0  0  0  0  0  0  0  0  0  0  0  0
   -8.4240    6.1170    8.7580 C   0  0  0  0  0  0  0  0  0  0  0  0
   -9.3950    6.3570    9.7450 N   0  0  0  0  0  0  0  0  0  0  0  0
  -10.5620    5.6840    9.7600 C   0  0  0  0  0  0  0  0  0  0  0  0
  -11.5770    5.6820   10.5960 N   0  0  0  0  0  0  0  0  0  0  0  0
  -12.4690    4.7490   10.1080 N   0  0  0  0  0  0  0  0  0  0  0  0
  -12.0160    4.1880    8.9920 N   0  0  0  0  0  0  0  0  0  0  0  0
  -10.8400    4.7900    8.7610 N   0  0  0  0  0  0  0  0  0  0  0  0
   -9.9950    4.4790    7.6090 C   0  0  0  0  0  0  0  0  0  0  0  0
   -8.6630    5.2070    7.7200 C   0  0  0  0  0  0  0  0  0  0  0  0
  -10.7490    4.8610    6.3730 C   0  0  0  0  0  0  0  0  0  0  0  0
  -11.0350    6.2020    6.1170 C   0  0  0  0  0  0  0  0  0  0  0  0
  -11.7370    6.5580    4.9650 C   0  0  0  0  0  0  0  0  0  0  0  0
  -12.1550    5.5730    4.0710 C   0  0  0  0  0  0  0  0  0  0  0  0
  -11.8700    4.2310    4.3270 C   0  0  0  0  0  0  0  0  0  0  0  0
  -11.1660    3.8760    5.4790 C   0  0  0  0  0  0  0  0  0  0  0  0
  -12.0160    7.8660    4.7150 O   0  0  0  0  0  0  0  0  0  0  0  0
   -6.8990    7.6510    9.7710 O   0  0  0  0  0  0  0  0  0  0  0  0
   -6.7732    3.5815    4.8942 N   0  0  0  0  0  0  0  0  0  0  0  0
   -7.2935    2.8554    3.9124 N   0  0  0  0  0  0  0  0  0  0  0  0
   -6.5360    2.3564    2.7951 C   0  0  0  0  0  0  0  0  0  0  0  0
   -5.3078    2.9487    2.4525 C   0  0  0  0  0  0  0  0  0  0  0  0
   -4.5633    2.4606    1.3747 C   0  0  0  0  0  0  0  0  0  0  0  0
   -5.0314    1.3723    0.6347 C   0  0  0  0  0  0  0  0  0  0  0  0
   -6.2441    0.7656    0.9745 C   0  0  0  0  0  0  0  0  0  0  0  0
   -6.8240   -0.6107    0.0544 Cl  0  0  0  0  0  0  0  0  0  0  0  0
   -6.9921    1.2518    2.0527 C   0  0  0  0  0  0  0  0  0  0  0  0
   -8.6283    2.7988    4.0888 C   0  0  0  0  0  0  0  0  0  0  0  0
   -8.9780    3.4936    5.1867 C   0  0  0  0  0  0  0  0  0  0  0  0
  -10.3103    4.1346    5.0051 C   0  0  0  0  0  0  0  0  0  0  0  0
  -10.7177    3.6807    3.5780 C   0  0  0  0  0  0  0  0  0  0  0  0
   -9.6067    2.8744    3.0718 N   0  0  0  0  0  0  0  0  0  0  0  0
  1  3  4  0
  1 14  4  0
  1  2  1  0
  3  4  4  0
  4  5  4  0
  5  6  4  0
  5 22  1  0
  6  7  1  0
  6 14  4  0
  7  8  1  0
  8  9  4  0
  8 12  4  0
  9 10  4  0
 10 11  4  0
 11 12  4  0
 12 13  1  0
 13 14  1  0
 13 15  1  6
 15 16  4  0
 15 20  4  0
 16 17  4  0
 17 18  4  0
 17 21  1  0
 18 19  4  0
 19 20  4  0
 23 24  4  0
 24 25  1  0
 25 26  4  0
 26 27  4  0
 27 28  4  0
 28 29  4  0
 29 30  1  0
 29 31  4  0
 24 32  4  0
 32 33  4  0
 33 34  1  0
 34 35  1  0
 35 36  1  0
 31 25  4  0
 36 32  1  0
  2 23  4  0
  2 33  4  0
M  END
$$$$

     RDKit          3D

 32 37  0  0  0  0  0  0  0  0999 V2000
   -7.6410    4.9930    6.8080 C   0  0  0  0  0  0  0  0  0  1  0  0
   -7.7310    4.0530    5.7140 C   0  0  0  0  0  0  0  0  0  2  0  0
   -6.4520    5.6300    6.8680 N   0  0  0  0  0  0  0  0  0  0  0  0
   -6.2260    6.5240    7.8670 N   0  0  0  0  0  0  0  0  0  0  0  0
   -7.1930    6.7500    8.7820 C   0  0  0  0  0  0  0  0  0  0  0  0
   -8.4240    6.1170    8.7580 C   0  0  0  0  0  0  0  0  0  0  0  0
   -9.3950    6.3570    9.7450 N   0  0  0  0  0  0  0  0  0  0  0  0
  -10.5620    5.6840    9.7600 C   0  0  0  0  0  0  0  0  0  0  0  0
  -11.5770    5.6820   10.5960 N   0  0  0  0  0  0  0  0  0  0  0  0
  -12.4690    4.7490   10.1080 N   0  0  0  0  0  0  0  0  0  0  0  0
  -12.0160    4.1880    8.9920 N   0  0  0  0  0  0  0  0  0  0  0  0
  -10.8400    4.7900    8.7610 N   0  0  0  0  0  0  0  0  0  0  0  0
   -9.9950    4.4790    7.6090 C   0  0  0  0  0  0  0  0  0  0  0  0
   -8.6630    5.2070    7.7200 C   0  0  0  0  0  0  0  0  0  0  0  0
  -10.7490    4.8610    6.3730 C   0  0  0  0  0  0  0  0  0  0  0  0
  -11.0350    6.2020    6.1170 C   0  0  0  0  0  0  0  0  0  0  0  0
  -11.7370    6.5580    4.9650 C   0  0  0  0  0  0  0  0  0  0  0  0
  -12.1550    5.5730    4.0710 C   0  0  0  0  0  0  0  0  0  0  0  0
  -11.8700    4.2310    4.3270 C   0  0  0  0  0  0  0  0  0  0  0  0
  -11.1660    3.8760    5.4790 C   0  0  0  0  0  0  0  0  0  0  0  0
  -12.0160    7.8660    4.7150 O   0  0  0  0  0  0  0  0  0  0  0  0
   -6.8990    7.6510    9.7710 O   0  0  0  0  0  0  0  0  0  0  0  0
   -6.8270    3.0264    5.3627 C   0  0  0  0  0  0  0  0  0  0  0  0
   -7.3971    2.0930    4.0428 S   0  0  0  0  0  0  0  0  0  0  0  0
   -8.8082    2.9918    3.9628 C   0  0  0  0  0  0  0  0  0  0  0  0
   -9.8592    2.9476    3.1246 N   0  0  0  0  0  0  0  0  0  0  0  0
  -10.6131    3.9864    3.5823 C   0  0  0  0  0  0  0  0  0  0  0  0
  -11.8978    4.3729    2.9900 C   0  0  0  0  0  0  0  0  0  0  0  0
  -12.5471    5.3461    3.4556 O   0  0  0  0  0  0  0  0  0  0  0  0
  -12.4072    3.6615    1.9115 O   0  0  0  0  0  0  0  0  0  0  0  0
   -9.9941    4.6207    4.6609 C   0  0  0  0  0  0  0  0  0  0  0  0
   -8.8592    3.9452    4.8702 N   0  0  0  0  0  0  0  0  0  0  0  0
  1  3  4  0
  1 14  4  0
  1  2  1  0
  3  4  4  0
  4  5  4  0
  5  6  4  0
  5 22  1  0
  6  7  1  0
  6 14  4  0
  7  8  1  0
  8  9  4  0
  8 12  4  0
  9 10  4  0
 10 11  4  0
 11 12  4  0
 12 13  1  0
 13 14  1  0
 13 15  1  6
 15 16  4  0
 15 20  4  0
 16 17  4  0
 17 18  4  0
 17 21  1  0
 18 19  4  0
 19 20  4  0
 23 24  4  0
 24 25  4  0
 25 26  4  0
 26 27  4  0
 27 28  1  0
 28 29  2  0
 28 30  1  0
 27 31  4  0
 31 32  4  0
 32 25  4  0
  2 23  4  0
  2 32  4  0
M  CHG  1  30  -1
M  END
$$$$

     RDKit          3D

 37 43  0  0  0  0  0  0  0  0999 V2000
   -7.6410    4.9930    6.8080 C   0  0  0  0  0  0  0  0  0  1  0  0
   -7.7310    4.0530    5.7140 C   0  0  0  0  0  0  0  0  0  2  0  0
   -6.4520    5.6300    6.8680 N   0  0  0  0  0  0  0  0  0  0  0  0
   -6.2260    6.5240    7.8670 N   0  0  0  0  0  0  0  0  0  0  0  0
   -7.1930    6.7500    8.7820 C   0  0  0  0  0  0  0  0  0  0  0  0
   -8.4240    6.1170    8.7580 C   0  0  0  0  0  0  0  0  0  0  0  0
   -9.3950    6.3570    9.7450 N   0  0  0  0  0  0  0  0  0  0  0  0
  -10.5620    5.6840    9.7600 C   0  0  0  0  0  0  0  0  0  0  0  0
  -11.5770    5.6820   10.5960 N   0  0  0  0  0  0  0  0  0  0  0  0
  -12.4690    4.7490   10.1080 N   0  0  0  0  0  0  0  0  0  0  0  0
  -12.0160    4.1880    8.9920 N   0  0  0  0  0  0  0  0  0  0  0  0
  -10.8400    4.7900    8.7610 N   0  0  0  0  0  0  0  0  0  0  0  0
   -9.9950    4.4790    7.6090 C   0  0  0  0  0  0  0  0  0  0  0  0
   -8.6630    5.2070    7.7200 C   0  0  0  0  0  0  0  0  0  0  0  0
  -10.7490    4.8610    6.3730 C   0  0  0  0  0  0  0  0  0  0  0  0
  -11.0350    6.2020    6.1170 C   0  0  0  0  0  0  0  0  0  0  0  0
  -11.7370    6.5580    4.9650 C   0  0  0  0  0  0  0  0  0  0  0  0
  -12.1550    5.5730    4.0710 C   0  0  0  0  0  0  0  0  0  0  0  0
  -11.8700    4.2310    4.3270 C   0  0  0  0  0  0  0  0  0  0  0  0
  -11.1660    3.8760    5.4790 C   0  0  0  0  0  0  0  0  0  0  0  0
  -12.0160    7.8660    4.7150 O   0  0  0  0  0  0  0  0  0  0  0  0
   -6.8990    7.6510    9.7710 O   0  0  0  0  0  0  0  0  0  0  0  0
   -6.7440    3.3223    5.1549 N   0  0  0  0  0  0  0  0  0  0  0  0
   -7.2046    2.5514    4.1786 N   0  0  0  0  0  0  0  0  0  0  0  0
   -6.3690    1.6550    3.4279 C   0  0  0  0  0  0  0  0  0  0  0  0
   -5.3800    0.9080    4.0887 C   0  0  0  0  0  0  0  0  0  0  0  0
   -4.5508    0.0407    3.3710 C   0  0  0  0  0  0  0  0  0  0  0  0
   -4.6929   -0.0776    1.9858 C   0  0  0  0  0  0  0  0  0  0  0  0
   -3.8866   -0.9168    1.2904 F   0  0  0  0  0  0  0  0  0  0  0  0
   -5.6597    0.6779    1.3167 C   0  0  0  0  0  0  0  0  0  0  0  0
   -6.4911    1.5454    2.0318 C   0  0  0  0  0  0  0  0  0  0  0  0
   -8.5407    2.7216    4.0802 C   0  0  0  0  0  0  0  0  0  0  0  0
   -8.9412    3.6488    5.0059 C   0  0  0  0  0  0  0  0  0  0  0  0
  -10.3788    4.0414    5.1958 C   0  0  0  0  0  0  0  0  0  0  0  0
  -11.1864    3.6650    4.0193 N   0  0  0  0  0  0  0  0  0  0  0  0
  -10.9426    2.2656    3.6136 C   0  0  0  0  0  0  0  0  0  0  0  0
   -9.4924    2.0580    3.1292 C   0  0  0  0  0  0  0  0  0  0  0  0
  1  3  4  0
  1 14  4  0
  1  2  1  0
  3  4  4  0
  4  5  4  0
  5  6  4  0
  5 22  1  0
  6  7  1  0
  6 14  4  0
  7  8  1  0
  8  9  4  0
  8 12  4  0
  9 10  4  0
 10 11  4  0
 11 12  4  0
 12 13  1  0
 13 14  1  0
 13 15  1  6
 15 16  4  0
 15 20  4  0
 16 17  4  0
 17 18  4  0
 17 21  1  0
 18 19  4  0
 19 20  4  0
 23 24  4  0
 24 25  1  0
 25 26  4  0
 26 27  4  0
 27 28  4  0
 28 29  1  0
 28 30  4  0
 30 31  4  0
 24 32  4  0
 32 33  4  0
 33 34  1  0
 34 35  1  0
 35 36  1  0
 36 37  1  0
 31 25  4  0
 37 32  1  0
  2 23  4  0
  2 33  4  0
M  END
$$$$

     RDKit          3D

 37 43  0  0  0  0  0  0  0  0999 V2000
   -7.6410    4.9930    6.8080 C   0  0  0  0  0  0  0  0  0  1  0  0
   -7.7310    4.0530    5.7140 C   0  0  0  0  0  0  0  0  0  2  0  0
   -6.4520    5.6300    6.8680 N   0  0  0  0  0  0  0  0  0  0  0  0
   -6.2260    6.5240    7.8670 N   0  0  0  0  0  0  0  0  0  0  0  0
   -7.1930    6.7500    8.7820 C   0  0  0  0  0  0  0  0  0  0  0  0
   -8.4240    6.1170    8.7580 C   0  0  0  0  0  0  0  0  0  0  0  0
   -9.3950    6.3570    9.7450 N   0  0  0  0  0  0  0  0  0  0  0  0
  -10.5620    5.6840    9.7600 C   0  0  0  0  0  0  0  0  0  0  0  0
  -11.5770    5.6820   10.5960 N   0  0  0  0  0  0  0  0  0  0  0  0
  -12.4690    4.7490   10.1080 N   0  0  0  0  0  0  0  0  0  0  0  0
  -12.0160    4.1880    8.9920 N   0  0  0  0  0  0  0  0  0  0  0  0
  -10.8400    4.7900    8.7610 N   0  0  0  0  0  0  0  0  0  0  0  0
   -9.9950    4.4790    7.6090 C   0  0  0  0  0  0  0  0  0  0  0  0
   -8.6630    5.2070    7.7200 C   0  0  0  0  0  0  0  0  0  0  0  0
  -10.7490    4.8610    6.3730 C   0  0  0  0  0  0  0  0  0  0  0  0
  -11.0350    6.2020    6.1170 C   0  0  0  0  0  0  0  0  0  0  0  0
  -11.7370    6.5580    4.9650 C   0  0  0  0  0  0  0  0  0  0  0  0
  -12.1550    5.5730    4.0710 C   0  0  0  0  0  0  0  0  0  0  0  0
  -11.8700    4.2310    4.3270 C   0  0  0  0  0  0  0  0  0  0  0  0
  -11.1660    3.8760    5.4790 C   0  0  0  0  0  0  0  0  0  0  0  0
  -12.0160    7.8660    4.7150 O   0  0  0  0  0  0  0  0  0  0  0  0
   -6.8990    7.6510    9.7710 O   0  0  0  0  0  0  0  0  0  0  0  0
   -6.7482    3.3446    5.1242 N   0  0  0  0  0  0  0  0  0  0  0  0
   -7.2235    2.5772    4.1524 N   0  0  0  0  0  0  0  0  0  0  0  0
   -6.3841    1.7950    3.2902 C   0  0  0  0  0  0  0  0  0  0  0  0
   -5.2108    2.3549    2.7604 C   0  0  0  0  0  0  0  0  0  0  0  0
   -4.3786    1.5959    1.9317 C   0  0  0  0  0  0  0  0  0  0  0  0
   -4.7047    0.2687    1.6382 C   0  0  0  0  0  0  0  0  0  0  0  0
   -3.8959   -0.4672    0.8367 F   0  0  0  0  0  0  0  0  0  0  0  0
   -5.8595   -0.3029    2.1805 C   0  0  0  0  0  0  0  0  0  0  0  0
   -6.6941    0.4541    3.0087 C   0  0  0  0  0  0  0  0  0  0  0  0
   -8.5619    2.7401    4.0714 C   0  0  0  0  0  0  0  0  0  0  0  0
   -8.9483    3.6567    5.0147 C   0  0  0  0  0  0  0  0  0  0  0  0
  -10.3454    4.2010    5.1011 C   0  0  0  0  0  0  0  0  0  0  0  0
  -11.0514    4.0375    3.8159 N   0  0  0  0  0  0  0  0  0  0  0  0
  -10.9288    2.6622    3.2934 C   0  0  0  0  0  0  0  0  0  0  0  0
   -9.4659    2.3056    2.9543 C   0  0  0  0  0  0  0  0  0  0  0  0
  1  3  4  0
  1 14  4  0
  1  2  1  0
  3  4  4  0
  4  5  4  0
  5  6  4  0
  5 22  1  0
  6  7  1  0
  6 14  4  0
  7  8  1  0
  8  9  4  0
  8 12  4  0
  9 10  4  0
 10 11  4  0
 11 12  4  0
 12 13  1  0
 13 14  1  0
 13 15  1  6
 15 16  4  0
 15 20  4  0
 16 17  4  0
 17 18  4  0
 17 21  1  0
 18 19  4  0
 19 20  4  0
 23 24  4  0
 24 25  1  0
 25 26  4  0
 26 27  4  0
 27 28  4  0
 28 29  1  0
 28 30  4  0
 30 31  4  0
 24 32  4  0
 32 33  4  0
 33 34  1  0
 34 35  1  0
 35 36  1  0
 36 37  1  0
 31 25  4  0
 37 32  1  0
  2 23  4  0
  2 33  4  0
M  END
$$$$

     RDKit          3D

 41 47  0  0  0  0  0  0  0  0999 V2000
   -7.6410    4.9930    6.8080 C   0  0  0  0  0  0  0  0  0  1  0  0
   -7.7310    4.0530    5.7140 C   0  0  0  0  0  0  0  0  0  2  0  0
   -6.4520    5.6300    6.8680 N   0  0  0  0  0  0  0  0  0  0  0  0
   -6.2260    6.5240    7.8670 N   0  0  0  0  0  0  0  0  0  0  0  0
   -7.1930    6.7500    8.7820 C   0  0  0  0  0  0  0  0  0  0  0  0
   -8.4240    6.1170    8.7580 C   0  0  0  0  0  0  0  0  0  0  0  0
   -9.3950    6.3570    9.7450 N   0  0  0  0  0  0  0  0  0  0  0  0
  -10.5620    5.6840    9.7600 C   0  0  0  0  0  0  0  0  0  0  0  0
  -11.5770    5.6820   10.5960 N   0  0  0  0  0  0  0  0  0  0  0  0
  -12.4690    4.7490   10.1080 N   0  0  0  0  0  0  0  0  0  0  0  0
  -12.0160    4.1880    8.9920 N   0  0  0  0  0  0  0  0  0  0  0  0
  -10.8400    4.7900    8.7610 N   0  0  0  0  0  0  0  0  0  0  0  0
   -9.9950    4.4790    7.6090 C   0  0  0  0  0  0  0  0  0  0  0  0
   -8.6630    5.2070    7.7200 C   0  0  0  0  0  0  0  0  0  0  0  0
  -10.7490    4.8610    6.3730 C   0  0  0  0  0  0  0  0  0  0  0  0
  -11.0350    6.2020    6.1170 C   0  0  0  0  0  0  0  0  0  0  0  0
  -11.7370    6.5580    4.9650 C   0  0  0  0  0  0  0  0  0  0  0  0
  -12.1550    5.5730    4.0710 C   0  0  0  0  0  0  0  0  0  0  0  0
  -11.8700    4.2310    4.3270 C   0  0  0  0  0  0  0  0  0  0  0  0
  -11.1660    3.8760    5.4790 C   0  0  0  0  0  0  0  0  0  0  0  0
  -12.0160    7.8660    4.7150 O   0  0  0  0  0  0  0  0  0  0  0  0
   -6.8990    7.6510    9.7710 O   0  0  0  0  0  0  0  0  0  0  0  0
   -7.0280    2.8282    5.5899 C   0  0  0  0  0  0  0  0  0  0  0  0
   -5.9330    2.4029    6.5155 C   0  0  0  0  0  0  0  0  0  0  0  0
   -7.5121    1.9486    4.2286 S   0  0  0  0  0  0  0  0  0  0  0  0
   -8.6890    3.0502    3.7666 C   0  0  0  0  0  0  0  0  0  0  0  0
   -9.5067    2.9588    2.6898 N   0  0  0  0  0  0  0  0  0  0  0  0
  -10.4007    3.9675    2.4462 C   0  0  0  0  0  0  0  0  0  0  0  0
  -11.3289    3.9169    1.2920 C   0  0  0  0  0  0  0  0  0  0  0  0
  -12.8348    4.8272    1.4293 Cl  0  0  0  0  0  0  0  0  0  0  0  0
  -10.9800    3.2994    0.1479 C   0  0  0  0  0  0  0  0  0  0  0  0
  -11.8440    3.1758   -1.0423 C   0  0  0  0  0  0  0  0  0  0  0  0
  -13.2170    2.9936   -1.1106 C   0  0  0  0  0  0  0  0  0  0  0  0
  -13.5759    2.8040   -2.3956 N   0  0  0  0  0  0  0  0  0  0  0  0
  -12.4772    2.8661   -3.1310 N   0  0  0  0  0  0  0  0  0  0  0  0
  -12.4473    2.6259   -4.5669 C   0  0  0  0  0  0  0  0  0  0  0  0
  -11.4039    3.0609   -2.3437 C   0  0  0  0  0  0  0  0  0  0  0  0
  -10.4591    5.0374    3.2962 N   0  0  0  0  0  0  0  0  0  0  0  0
   -9.6438    5.1447    4.3819 C   0  0  0  0  0  0  0  0  0  0  0  0
   -9.7191    6.1632    5.1178 O   0  0  0  0  0  0  0  0  0  0  0  0
   -8.7292    4.1172    4.6437 C   0  0  0  0  0  0  0  0  0  0  0  0
  1  3  4  0
  1 14  4  0
  1  2  1  0
  3  4  4  0
  4  5  4  0
  5  6  4  0
  5 22  1  0
  6  7  1  0
  6 14  4  0
  7  8  1  0
  8  9  4  0
  8 12  4  0
  9 10  4  0
 10 11  4  0
 11 12  4  0
 12 13  1  0
 13 14  1  0
 13 15  1  6
 15 16  4  0
 15 20  4  0
 16 17  4  0
 17 18  4  0
 17 21  1  0
 18 19  4  0
 19 20  4  0
 23 24  1  0
 23 25  4  0
 25 26  4  0
 26 27  4  0
 27 28  4  0
 28 29  1  0
 29 30  1  0
 29 31  2  3
 31 32  1  0
 32 33  4  0
 33 34  4  0
 34 35  4  0
 35 36  1  0
 35 37  4  0
 28 38  4  0
 38 39  4  0
 39 40  2  0
 39 41  4  0
 41 26  4  0
 37 32  4  0
  2 23  4  0
  2 41  4  0
M  END
$$$$

     RDKit          3D

 41 47  0  0  0  0  0  0  0  0999 V2000
   -7.6410    4.9930    6.8080 C   0  0  0  0  0  0  0  0  0  1  0  0
   -7.7310    4.0530    5.7140 C   0  0  0  0  0  0  0  0  0  2  0  0
   -6.4520    5.6300    6.8680 N   0  0  0  0  0  0  0  0  0  0  0  0
   -6.2260    6.5240    7.8670 N   0  0  0  0  0  0  0  0  0  0  0  0
   -7.1930    6.7500    8.7820 C   0  0  0  0  0  0  0  0  0  0  0  0
   -8.4240    6.1170    8.7580 C   0  0  0  0  0  0  0  0  0  0  0  0
   -9.3950    6.3570    9.7450 N   0  0  0  0  0  0  0  0  0  0  0  0
  -10.5620    5.6840    9.7600 C   0  0  0  0  0  0  0  0  0  0  0  0
  -11.5770    5.6820   10.5960 N   0  0  0  0  0  0  0  0  0  0  0  0
  -12.4690    4.7490   10.1080 N   0  0  0  0  0  0  0  0  0  0  0  0
  -12.0160    4.1880    8.9920 N   0  0  0  0  0  0  0  0  0  0  0  0
  -10.8400    4.7900    8.7610 N   0  0  0  0  0  0  0  0  0  0  0  0
   -9.9950    4.4790    7.6090 C   0  0  0  0  0  0  0  0  0  0  0  0
   -8.6630    5.2070    7.7200 C   0  0  0  0  0  0  0  0  0  0  0  0
  -10.7490    4.8610    6.3730 C   0  0  0  0  0  0  0  0  0  0  0  0
  -11.0350    6.2020    6.1170 C   0  0  0  0  0  0  0  0  0  0  0  0
  -11.7370    6.5580    4.9650 C   0  0  0  0  0  0  0  0  0  0  0  0
  -12.1550    5.5730    4.0710 C   0  0  0  0  0  0  0  0  0  0  0  0
  -11.8700    4.2310    4.3270 C   0  0  0  0  0  0  0  0  0  0  0  0
  -11.1660    3.8760    5.4790 C   0  0  0  0  0  0  0  0  0  0  0  0
  -12.0160    7.8660    4.7150 O   0  0  0  0  0  0  0  0  0  0  0  0
   -6.8990    7.6510    9.7710 O   0  0  0  0  0  0  0  0  0  0  0  0
   -7.0275    2.8285    5.5893 C   0  0  0  0  0  0  0  0  0  0  0  0
   -5.9303    2.4046    6.5130 C   0  0  0  0  0  0  0  0  0  0  0  0
   -7.5112    1.9494    4.2277 S   0  0  0  0  0  0  0  0  0  0  0  0
   -8.6890    3.0503    3.7665 C   0  0  0  0  0  0  0  0  0  0  0  0
   -9.5076    2.9583    2.6902 N   0  0  0  0  0  0  0  0  0  0  0  0
  -10.4025    3.9666    2.4474 C   0  0  0  0  0  0  0  0  0  0  0  0
  -11.3331    3.9209    1.2954 C   0  0  0  0  0  0  0  0  0  0  0  0
  -12.9123    4.6749    1.5193 Cl  0  0  0  0  0  0  0  0  0  0  0  0
  -10.9929    3.3088    0.1450 C   0  0  0  0  0  0  0  0  0  0  0  0
  -11.8458    3.2286   -1.0572 C   0  0  0  0  0  0  0  0  0  0  0  0
  -11.8104    2.2166   -1.9990 C   0  0  0  0  0  0  0  0  0  0  0  0
  -12.6338    2.5254   -3.0195 N   0  0  0  0  0  0  0  0  0  0  0  0
  -13.1831    3.6984   -2.7475 N   0  0  0  0  0  0  0  0  0  0  0  0
  -14.0598    4.4144   -3.6638 C   0  0  0  0  0  0  0  0  0  0  0  0
  -12.7114    4.1719   -1.5797 C   0  0  0  0  0  0  0  0  0  0  0  0
  -10.4615    5.0358    3.2981 N   0  0  0  0  0  0  0  0  0  0  0  0
   -9.6456    5.1435    4.3834 C   0  0  0  0  0  0  0  0  0  0  0  0
   -9.7213    6.1616    5.1198 O   0  0  0  0  0  0  0  0  0  0  0  0
   -8.7297    4.1169    4.6441 C   0  0  0  0  0  0  0  0  0  0  0  0
  1  3  4  0
  1 14  4  0
  1  2  1  0
  3  4  4  0
  4  5  4  0
  5  6  4  0
  5 22  1  0
  6  7  1  0
  6 14  4  0
  7  8  1  0
  8  9  4  0
  8 12  4  0
  9 10  4  0
 10 11  4  0
 11 12  4  0
 12 13  1  0
 13 14  1  0
 13 15  1  6
 15 16  4  0
 15 20  4  0
 16 17  4  0
 17 18  4  0
 17 21  1  0
 18 19  4  0
 19 20  4  0
 23 24  1  0
 23 25  4  0
 25 26  4  0
 26 27  4  0
 27 28  4  0
 28 29  1  0
 29 30  1  0
 29 31  2  3
 31 32  1  0
 32 33  4  0
 33 34  4  0
 34 35  4  0
 35 36  1  0
 35 37  4  0
 28 38  4  0
 38 39  4  0
 39 40  2  0
 39 41  4  0
 41 26  4  0
 37 32  4  0
  2 23  4  0
  2 41  4  0
M  END
$$$$

     RDKit          3D

 42 48  0  0  0  0  0  0  0  0999 V2000
   -7.6410    4.9930    6.8080 C   0  0  0  0  0  0  0  0  0  1  0  0
   -7.7310    4.0530    5.7140 C   0  0  0  0  0  0  0  0  0  2  0  0
   -6.4520    5.6300    6.8680 N   0  0  0  0  0  0  0  0  0  0  0  0
   -6.2260    6.5240    7.8670 N   0  0  0  0  0  0  0  0  0  0  0  0
   -7.1930    6.7500    8.7820 C   0  0  0  0  0  0  0  0  0  0  0  0
   -8.4240    6.1170    8.7580 C   0  0  0  0  0  0  0  0  0  0  0  0
   -9.3950    6.3570    9.7450 N   0  0  0  0  0  0  0  0  0  0  0  0
  -10.5620    5.6840    9.7600 C   0  0  0  0  0  0  0  0  0  0  0  0
  -11.5770    5.6820   10.5960 N   0  0  0  0  0  0  0  0  0  0  0  0
  -12.4690    4.7490   10.1080 N   0  0  0  0  0  0  0  0  0  0  0  0
  -12.0160    4.1880    8.9920 N   0  0  0  0  0  0  0  0  0  0  0  0
  -10.8400    4.7900    8.7610 N   0  0  0  0  0  0  0  0  0  0  0  0
   -9.9950    4.4790    7.6090 C   0  0  0  0  0  0  0  0  0  0  0  0
   -8.6630    5.2070    7.7200 C   0  0  0  0  0  0  0  0  0  0  0  0
  -10.7490    4.8610    6.3730 C   0  0  0  0  0  0  0  0  0  0  0  0
  -11.0350    6.2020    6.1170 C   0  0  0  0  0  0  0  0  0  0  0  0
  -11.7370    6.5580    4.9650 C   0  0  0  0  0  0  0  0  0  0  0  0
  -12.1550    5.5730    4.0710 C   0  0  0  0  0  0  0  0  0  0  0  0
  -11.8700    4.2310    4.3270 C   0  0  0  0  0  0  0  0  0  0  0  0
  -11.1660    3.8760    5.4790 C   0  0  0  0  0  0  0  0  0  0  0  0
  -12.0160    7.8660    4.7150 O   0  0  0  0  0  0  0  0  0  0  0  0
   -6.8990    7.6510    9.7710 O   0  0  0  0  0  0  0  0  0  0  0  0
   -6.8861    2.9900    5.6058 N   0  0  0  0  0  0  0  0  0  0  0  0
   -6.9664    2.0445    4.6716 N   0  0  0  0  0  0  0  0  0  0  0  0
   -7.9514    2.0364    3.7391 C   0  0  0  0  0  0  0  0  0  0  0  0
   -7.9587    0.9911    2.7565 N   0  0  0  0  0  0  0  0  0  0  0  0
   -7.7838    1.2186    1.3453 C   0  0  0  0  0  0  0  0  0  0  0  0
   -7.9982    0.1626    0.4478 C   0  0  0  0  0  0  0  0  0  0  0  0
   -7.8365    0.3550   -0.9272 C   0  0  0  0  0  0  0  0  0  0  0  0
   -7.4360    1.6033   -1.4269 C   0  0  0  0  0  0  0  0  0  0  0  0
   -7.2846    1.8007   -2.8836 C   0  0  0  0  0  0  0  0  0  0  0  0
   -8.1582    1.3261   -3.6583 O   0  0  0  0  0  0  0  0  0  0  0  0
   -6.1669    2.5050   -3.4451 N   0  0  0  0  0  0  0  0  0  0  0  0
   -4.8758    2.6043   -2.7718 C   0  0  0  0  0  0  0  0  0  0  0  0
   -7.2309    2.6650   -0.5330 C   0  0  0  0  0  0  0  0  0  0  0  0
   -7.3934    2.4737    0.8420 C   0  0  0  0  0  0  0  0  0  0  0  0
   -8.9367    3.0447    3.7688 C   0  0  0  0  0  0  0  0  0  0  0  0
  -10.0158    3.0545    2.8626 C   0  0  0  0  0  0  0  0  0  0  0  0
  -10.9492    4.0912    2.8858 C   0  0  0  0  0  0  0  0  0  0  0  0
  -10.8229    5.1270    3.8092 C   0  0  0  0  0  0  0  0  0  0  0  0
   -9.7767    5.1210    4.7331 C   0  0  0  0  0  0  0  0  0  0  0  0
   -8.8383    4.0672    4.7462 C   0  0  0  0  0  0  0  0  0  0  0  0
  1  3  4  0
  1 14  4  0
  1  2  1  0
  3  4  4  0
  4  5  4  0
  5  6  4  0
  5 22  1  0
  6  7  1  0
  6 14  4  0
  7  8  1  0
  8  9  4  0
  8 12  4  0
  9 10  4  0
 10 11  4  0
 11 12  4  0
 12 13  1  0
 13 14  1  0
 13 15  1  6
 15 16  4  0
 15 20  4  0
 16 17  4  0
 17 18  4  0
 17 21  1  0
 18 19  4  0
 19 20  4  0
 23 24  4  0
 24 25  4  0
 25 26  1  0
 26 27  1  0
 27 28  4  0
 28 29  4  0
 29 30  4  0
 30 31  1  0
 31 32  2  0
 31 33  1  0
 33 34  1  0
 30 35  4  0
 35 36  4  0
 25 37  4  0
 37 38  4  0
 38 39  4  0
 39 40  4  0
 40 41  4  0
 41 42  4  0
 36 27  4  0
 42 37  4  0
  2 23  4  0
  2 42  4  0
M  END
$$$$

     RDKit          3D

 42 48  0  0  0  0  0  0  0  0999 V2000
   -7.6410    4.9930    6.8080 C   0  0  0  0  0  0  0  0  0  1  0  0
   -7.7310    4.0530    5.7140 C   0  0  0  0  0  0  0  0  0  2  0  0
   -6.4520    5.6300    6.8680 N   0  0  0  0  0  0  0  0  0  0  0  0
   -6.2260    6.5240    7.8670 N   0  0  0  0  0  0  0  0  0  0  0  0
   -7.1930    6.7500    8.7820 C   0  0  0  0  0  0  0  0  0  0  0  0
   -8.4240    6.1170    8.7580 C   0  0  0  0  0  0  0  0  0  0  0  0
   -9.3950    6.3570    9.7450 N   0  0  0  0  0  0  0  0  0  0  0  0
  -10.5620    5.6840    9.7600 C   0  0  0  0  0  0  0  0  0  0  0  0
  -11.5770    5.6820   10.5960 N   0  0  0  0  0  0  0  0  0  0  0  0
  -12.4690    4.7490   10.1080 N   0  0  0  0  0  0  0  0  0  0  0  0
  -12.0160    4.1880    8.9920 N   0  0  0  0  0  0  0  0  0  0  0  0
  -10.8400    4.7900    8.7610 N   0  0  0  0  0  0  0  0  0  0  0  0
   -9.9950    4.4790    7.6090 C   0  0  0  0  0  0  0  0  0  0  0  0
   -8.6630    5.2070    7.7200 C   0  0  0  0  0  0  0  0  0  0  0  0
  -10.7490    4.8610    6.3730 C   0  0  0  0  0  0  0  0  0  0  0  0
  -11.0350    6.2020    6.1170 C   0  0  0  0  0  0  0  0  0  0  0  0
  -11.7370    6.5580    4.9650 C   0  0  0  0  0  0  0  0  0  0  0  0
  -12.1550    5.5730    4.0710 C   0  0  0  0  0  0  0  0  0  0  0  0
  -11.8700    4.2310    4.3270 C   0  0  0  0  0  0  0  0  0  0  0  0
  -11.1660    3.8760    5.4790 C   0  0  0  0  0  0  0  0  0  0  0  0
  -12.0160    7.8660    4.7150 O   0  0  0  0  0  0  0  0  0  0  0  0
   -6.8990    7.6510    9.7710 O   0  0  0  0  0  0  0  0  0  0  0  0
   -6.8087    3.0724    5.5299 N   0  0  0  0  0  0  0  0  0  0  0  0
   -6.8790    2.1158    4.6053 N   0  0  0  0  0  0  0  0  0  0  0  0
   -7.9315    2.0135    3.7578 C   0  0  0  0  0  0  0  0  0  0  0  0
   -7.9500    0.9476    2.8022 N   0  0  0  0  0  0  0  0  0  0  0  0
   -7.2609    1.0513    1.5465 C   0  0  0  0  0  0  0  0  0  0  0  0
   -6.6645   -0.0920    0.9871 C   0  0  0  0  0  0  0  0  0  0  0  0
   -5.9771   -0.0038   -0.2272 C   0  0  0  0  0  0  0  0  0  0  0  0
   -5.9173    1.2167   -0.9269 C   0  0  0  0  0  0  0  0  0  0  0  0
   -5.2239    1.2910   -2.2334 C   0  0  0  0  0  0  0  0  0  0  0  0
   -4.2350    0.5348   -2.4517 O   0  0  0  0  0  0  0  0  0  0  0  0
   -5.6958    2.1715   -3.2686 N   0  0  0  0  0  0  0  0  0  0  0  0
   -4.9670    2.3501   -4.5188 C   0  0  0  0  0  0  0  0  0  0  0  0
   -6.5253    2.3567   -0.3723 C   0  0  0  0  0  0  0  0  0  0  0  0
   -7.1782    2.2788    0.8622 C   0  0  0  0  0  0  0  0  0  0  0  0
   -8.9783    2.9482    3.8408 C   0  0  0  0  0  0  0  0  0  0  0  0
  -10.0838    2.8922    2.9681 C   0  0  0  0  0  0  0  0  0  0  0  0
  -11.0924    3.8556    3.0448 C   0  0  0  0  0  0  0  0  0  0  0  0
  -11.0075    4.8887    3.9781 C   0  0  0  0  0  0  0  0  0  0  0  0
   -9.9159    4.9597    4.8508 C   0  0  0  0  0  0  0  0  0  0  0  0
   -8.9018    3.9780    4.8144 C   0  0  0  0  0  0  0  0  0  0  0  0
  1  3  4  0
  1 14  4  0
  1  2  1  0
  3  4  4  0
  4  5  4  0
  5  6  4  0
  5 22  1  0
  6  7  1  0
  6 14  4  0
  7  8  1  0
  8  9  4  0
  8 12  4  0
  9 10  4  0
 10 11  4  0
 11 12  4  0
 12 13  1  0
 13 14  1  0
 13 15  1  6
 15 16  4  0
 15 20  4  0
 16 17  4  0
 17 18  4  0
 17 21  1  0
 18 19  4  0
 19 20  4  0
 23 24  4  0
 24 25  4  0
 25 26  1  0
 26 27  1  0
 27 28  4  0
 28 29  4  0
 29 30  4  0
 30 31  1  0
 31 32  2  0
 31 33  1  0
 33 34  1  0
 30 35  4  0
 35 36  4  0
 25 37  4  0
 37 38  4  0
 38 39  4  0
 39 40  4  0
 40 41  4  0
 41 42  4  0
 36 27  4  0
 42 37  4  0
  2 23  4  0
  2 42  4  0
M  END
$$$$

     RDKit          3D

 42 48  0  0  0  0  0  0  0  0999 V2000
   -7.6410    4.9930    6.8080 C   0  0  0  0  0  0  0  0  0  1  0  0
   -7.7310    4.0530    5.7140 C   0  0  0  0  0  0  0  0  0  2  0  0
   -6.4520    5.6300    6.8680 N   0  0  0  0  0  0  0  0  0  0  0  0
   -6.2260    6.5240    7.8670 N   0  0  0  0  0  0  0  0  0  0  0  0
   -7.1930    6.7500    8.7820 C   0  0  0  0  0  0  0  0  0  0  0  0
   -8.4240    6.1170    8.7580 C   0  0  0  0  0  0  0  0  0  0  0  0
   -9.3950    6.3570    9.7450 N   0  0  0  0  0  0  0  0  0  0  0  0
  -10.5620    5.6840    9.7600 C   0  0  0  0  0  0  0  0  0  0  0  0
  -11.5770    5.6820   10.5960 N   0  0  0  0  0  0  0  0  0  0  0  0
  -12.4690    4.7490   10.1080 N   0  0  0  0  0  0  0  0  0  0  0  0
  -12.0160    4.1880    8.9920 N   0  0  0  0  0  0  0  0  0  0  0  0
  -10.8400    4.7900    8.7610 N   0  0  0  0  0  0  0  0  0  0  0  0
   -9.9950    4.4790    7.6090 C   0  0  0  0  0  0  0  0  0  0  0  0
   -8.6630    5.2070    7.7200 C   0  0  0  0  0  0  0  0  0  0  0  0
  -10.7490    4.8610    6.3730 C   0  0  0  0  0  0  0  0  0  0  0  0
  -11.0350    6.2020    6.1170 C   0  0  0  0  0  0  0  0  0  0  0  0
  -11.7370    6.5580    4.9650 C   0  0  0  0  0  0  0  0  0  0  0  0
  -12.1550    5.5730    4.0710 C   0  0  0  0  0  0  0  0  0  0  0  0
  -11.8700    4.2310    4.3270 C   0  0  0  0  0  0  0  0  0  0  0  0
  -11.1660    3.8760    5.4790 C   0  0  0  0  0  0  0  0  0  0  0  0
  -12.0160    7.8660    4.7150 O   0  0  0  0  0  0  0  0  0  0  0  0
   -6.8990    7.6510    9.7710 O   0  0  0  0  0  0  0  0  0  0  0  0
   -6.8688    3.0073    5.5869 N   0  0  0  0  0  0  0  0  0  0  0  0
   -6.9568    2.0533    4.6622 N   0  0  0  0  0  0  0  0  0  0  0  0
   -7.9723    2.0142    3.7638 C   0  0  0  0  0  0  0  0  0  0  0  0
   -8.0103    0.9371    2.8169 N   0  0  0  0  0  0  0  0  0  0  0  0
   -9.0738   -0.0314    2.7486 C   0  0  0  0  0  0  0  0  0  0  0  0
   -9.1244   -0.9204    1.6652 C   0  0  0  0  0  0  0  0  0  0  0  0
  -10.1462   -1.8694    1.5722 C   0  0  0  0  0  0  0  0  0  0  0  0
  -11.1239   -1.9599    2.5742 C   0  0  0  0  0  0  0  0  0  0  0  0
  -12.2092   -2.9558    2.4580 C   0  0  0  0  0  0  0  0  0  0  0  0
  -12.7782   -3.1116    1.3444 O   0  0  0  0  0  0  0  0  0  0  0  0
  -12.6274   -3.7601    3.5710 N   0  0  0  0  0  0  0  0  0  0  0  0
  -11.7477   -4.0773    4.6917 C   0  0  0  0  0  0  0  0  0  0  0  0
  -11.0820   -1.0662    3.6549 C   0  0  0  0  0  0  0  0  0  0  0  0
  -10.0615   -0.1157    3.7478 C   0  0  0  0  0  0  0  0  0  0  0  0
   -8.9320    3.0474    3.7640 C   0  0  0  0  0  0  0  0  0  0  0  0
   -9.9497    3.1143    2.7911 C   0  0  0  0  0  0  0  0  0  0  0  0
  -10.8732    4.1597    2.8041 C   0  0  0  0  0  0  0  0  0  0  0  0
  -10.7841    5.1616    3.7681 C   0  0  0  0  0  0  0  0  0  0  0  0
   -9.7716    5.1251    4.7279 C   0  0  0  0  0  0  0  0  0  0  0  0
   -8.8404    4.0648    4.7481 C   0  0  0  0  0  0  0  0  0  0  0  0
  1  3  4  0
  1 14  4  0
  1  2  1  0
  3  4  4  0
  4  5  4  0
  5  6  4  0
  5 22  1  0
  6  7  1  0
  6 14  4  0
  7  8  1  0
  8  9  4  0
  8 12  4  0
  9 10  4  0
 10 11  4  0
 11 12  4  0
 12 13  1  0
 13 14  1  0
 13 15  1  6
 15 16  4  0
 15 20  4  0
 16 17  4  0
 17 18  4  0
 17 21  1  0
 18 19  4  0
 19 20  4  0
 23 24  4  0
 24 25  4  0
 25 26  1  0
 26 27  1  0
 27 28  4  0
 28 29  4  0
 29 30  4  0
 30 31  1  0
 31 32  2  0
 31 33  1  0
 33 34  1  0
 30 35  4  0
 35 36  4  0
 25 37  4  0
 37 38  4  0
 38 39  4  0
 39 40  4  0
 40 41  4  0
 41 42  4  0
 36 27  4  0
 42 37  4  0
  2 23  4  0
  2 42  4  0
M  END
$$$$

     RDKit          3D

 39 44  0  0  0  0  0  0  0  0999 V2000
   -7.6410    4.9930    6.8080 C   0  0  0  0  0  0  0  0  0  1  0  0
   -7.7310    4.0530    5.7140 C   0  0  0  0  0  0  0  0  0  2  0  0
   -6.4520    5.6300    6.8680 N   0  0  0  0  0  0  0  0  0  0  0  0
   -6.2260    6.5240    7.8670 N   0  0  0  0  0  0  0  0  0  0  0  0
   -7.1930    6.7500    8.7820 C   0  0  0  0  0  0  0  0  0  0  0  0
   -8.4240    6.1170    8.7580 C   0  0  0  0  0  0  0  0  0  0  0  0
   -9.3950    6.3570    9.7450 N   0  0  0  0  0  0  0  0  0  0  0  0
  -10.5620    5.6840    9.7600 C   0  0  0  0  0  0  0  0  0  0  0  0
  -11.5770    5.6820   10.5960 N   0  0  0  0  0  0  0  0  0  0  0  0
  -12.4690    4.7490   10.1080 N   0  0  0  0  0  0  0  0  0  0  0  0
  -12.0160    4.1880    8.9920 N   0  0  0  0  0  0  0  0  0  0  0  0
  -10.8400    4.7900    8.7610 N   0  0  0  0  0  0  0  0  0  0  0  0
   -9.9950    4.4790    7.6090 C   0  0  0  0  0  0  0  0  0  0  0  0
   -8.6630    5.2070    7.7200 C   0  0  0  0  0  0  0  0  0  0  0  0
  -10.7490    4.8610    6.3730 C   0  0  0  0  0  0  0  0  0  0  0  0
  -11.0350    6.2020    6.1170 C   0  0  0  0  0  0  0  0  0  0  0  0
  -11.7370    6.5580    4.9650 C   0  0  0  0  0  0  0  0  0  0  0  0
  -12.1550    5.5730    4.0710 C   0  0  0  0  0  0  0  0  0  0  0  0
  -11.8700    4.2310    4.3270 C   0  0  0  0  0  0  0  0  0  0  0  0
  -11.1660    3.8760    5.4790 C   0  0  0  0  0  0  0  0  0  0  0  0
  -12.0160    7.8660    4.7150 O   0  0  0  0  0  0  0  0  0  0  0  0
   -6.8990    7.6510    9.7710 O   0  0  0  0  0  0  0  0  0  0  0  0
   -6.8910    2.9456    5.5048 C   0  0  0  0  0  0  0  0  0  0  0  0
   -7.4031    1.9927    4.2065 S   0  0  0  0  0  0  0  0  0  0  0  0
   -8.7492    2.9296    3.8708 C   0  0  0  0  0  0  0  0  0  0  0  0
   -9.6375    2.7334    2.8724 N   0  0  0  0  0  0  0  0  0  0  0  0
  -10.6622    3.6144    2.7157 C   0  0  0  0  0  0  0  0  0  0  0  0
  -10.7925    4.6991    3.5499 N   0  0  0  0  0  0  0  0  0  0  0  0
  -11.8883    5.6533    3.3185 C   0  0  0  0  0  0  0  0  0  0  0  0
  -11.3790    6.8543    2.5873 C   0  0  0  0  0  0  0  0  0  0  0  0
  -10.9431    6.7266    1.4117 O   0  0  0  0  0  0  0  0  0  0  0  0
  -11.3838    8.0998    3.2312 O   0  0  0  0  0  0  0  0  0  0  0  0
  -10.8539    9.3188    2.6951 C   0  0  0  0  0  0  0  0  0  0  0  0
   -9.3462    9.2021    2.4480 C   0  0  0  0  0  0  0  0  0  0  0  0
  -11.6059    9.7733    1.4292 C   0  0  0  0  0  0  0  0  0  0  0  0
  -13.1036    9.9306    1.6846 C   0  0  0  0  0  0  0  0  0  0  0  0
   -9.8757    4.9172    4.5537 C   0  0  0  0  0  0  0  0  0  0  0  0
   -9.9562    5.9475    5.2770 O   0  0  0  0  0  0  0  0  0  0  0  0
   -8.8359    3.9941    4.7427 C   0  0  0  0  0  0  0  0  0  0  0  0
  1  3  4  0
  1 14  4  0
  1  2  1  0
  3  4  4  0
  4  5  4  0
  5  6  4  0
  5 22  1  0
  6  7  1  0
  6 14  4  0
  7  8  1  0
  8  9  4  0
  8 12  4  0
  9 10  4  0
 10 11  4  0
 11 12  4  0
 12 13  1  0
 13 14  1  0
 13 15  1  6
 15 16  4  0
 15 20  4  0
 16 17  4  0
 17 18  4  0
 17 21  1  0
 18 19  4  0
 19 20  4  0
 23 24  4  0
 24 25  4  0
 25 26  4  0
 26 27  4  0
 27 28  4  0
 28 29  1  0
 29 30  1  0
 30 31  2  0
 30 32  1  0
 32 33  1  0
 33 34  1  0
 33 35  1  0
 35 36  1  0
 28 37  4  0
 37 38  2  0
 37 39  4  0
 39 25  4  0
  2 23  4  0
  2 39  4  0
M  END
$$$$

     RDKit          3D

 29 33  0  0  0  0  0  0  0  0999 V2000
   -7.6410    4.9930    6.8080 C   0  0  0  0  0  0  0  0  0  1  0  0
   -7.7310    4.0530    5.7140 C   0  0  0  0  0  0  0  0  0  2  0  0
   -6.4520    5.6300    6.8680 N   0  0  0  0  0  0  0  0  0  0  0  0
   -6.2260    6.5240    7.8670 N   0  0  0  0  0  0  0  0  0  0  0  0
   -7.1930    6.7500    8.7820 C   0  0  0  0  0  0  0  0  0  0  0  0
   -8.4240    6.1170    8.7580 C   0  0  0  0  0  0  0  0  0  0  0  0
   -9.3950    6.3570    9.7450 N   0  0  0  0  0  0  0  0  0  0  0  0
  -10.5620    5.6840    9.7600 C   0  0  0  0  0  0  0  0  0  0  0  0
  -11.5770    5.6820   10.5960 N   0  0  0  0  0  0  0  0  0  0  0  0
  -12.4690    4.7490   10.1080 N   0  0  0  0  0  0  0  0  0  0  0  0
  -12.0160    4.1880    8.9920 N   0  0  0  0  0  0  0  0  0  0  0  0
  -10.8400    4.7900    8.7610 N   0  0  0  0  0  0  0  0  0  0  0  0
   -9.9950    4.4790    7.6090 C   0  0  0  0  0  0  0  0  0  0  0  0
   -8.6630    5.2070    7.7200 C   0  0  0  0  0  0  0  0  0  0  0  0
  -10.7490    4.8610    6.3730 C   0  0  0  0  0  0  0  0  0  0  0  0
  -11.0350    6.2020    6.1170 C   0  0  0  0  0  0  0  0  0  0  0  0
  -11.7370    6.5580    4.9650 C   0  0  0  0  0  0  0  0  0  0  0  0
  -12.1550    5.5730    4.0710 C   0  0  0  0  0  0  0  0  0  0  0  0
  -11.8700    4.2310    4.3270 C   0  0  0  0  0  0  0  0  0  0  0  0
  -11.1660    3.8760    5.4790 C   0  0  0  0  0  0  0  0  0  0  0  0
  -12.0160    7.8660    4.7150 O   0  0  0  0  0  0  0  0  0  0  0  0
   -6.8990    7.6510    9.7710 O   0  0  0  0  0  0  0  0  0  0  0  0
   -6.8433    2.9911    5.5212 C   0  0  0  0  0  0  0  0  0  0  0  0
   -7.0355    1.9867    4.5761 C   0  0  0  0  0  0  0  0  0  0  0  0
   -8.1829    1.9787    3.7862 C   0  0  0  0  0  0  0  0  0  0  0  0
   -9.1466    2.9921    3.9152 C   0  0  0  0  0  0  0  0  0  0  0  0
  -10.3604    2.9630    3.0252 C   0  0  0  0  0  0  0  0  0  0  0  0
   -8.9500    4.0288    4.8625 C   0  0  0  0  0  0  0  0  0  0  0  0
   -9.8789    5.1238    4.9456 N   0  0  0  0  0  0  0  0  0  0  0  0
  1  3  4  0
  1 14  4  0
  1  2  1  0
  3  4  4  0
  4  5  4  0
  5  6  4  0
  5 22  1  0
  6  7  1  0
  6 14  4  0
  7  8  1  0
  8  9  4  0
  8 12  4  0
  9 10  4  0
 10 11  4  0
 11 12  4  0
 12 13  1  0
 13 14  1  0
 13 15  1  6
 15 16  4  0
 15 20  4  0
 16 17  4  0
 17 18  4  0
 17 21  1  0
 18 19  4  0
 19 20  4  0
 23 24  4  0
 24 25  4  0
 25 26  4  0
 26 27  1  0
 26 28  4  0
 28 29  1  0
  2 23  4  0
  2 28  4  0
M  END
$$$$

     RDKit          3D

 31 35  0  0  0  0  0  0  0  0999 V2000
   -7.6410    4.9930    6.8080 C   0  0  0  0  0  0  0  0  0  1  0  0
   -7.7310    4.0530    5.7140 C   0  0  0  0  0  0  0  0  0  2  0  0
   -6.4520    5.6300    6.8680 N   0  0  0  0  0  0  0  0  0  0  0  0
   -6.2260    6.5240    7.8670 N   0  0  0  0  0  0  0  0  0  0  0  0
   -7.1930    6.7500    8.7820 C   0  0  0  0  0  0  0  0  0  0  0  0
   -8.4240    6.1170    8.7580 C   0  0  0  0  0  0  0  0  0  0  0  0
   -9.3950    6.3570    9.7450 N   0  0  0  0  0  0  0  0  0  0  0  0
  -10.5620    5.6840    9.7600 C   0  0  0  0  0  0  0  0  0  0  0  0
  -11.5770    5.6820   10.5960 N   0  0  0  0  0  0  0  0  0  0  0  0
  -12.4690    4.7490   10.1080 N   0  0  0  0  0  0  0  0  0  0  0  0
  -12.0160    4.1880    8.9920 N   0  0  0  0  0  0  0  0  0  0  0  0
  -10.8400    4.7900    8.7610 N   0  0  0  0  0  0  0  0  0  0  0  0
   -9.9950    4.4790    7.6090 C   0  0  0  0  0  0  0  0  0  0  0  0
   -8.6630    5.2070    7.7200 C   0  0  0  0  0  0  0  0  0  0  0  0
  -10.7490    4.8610    6.3730 C   0  0  0  0  0  0  0  0  0  0  0  0
  -11.0350    6.2020    6.1170 C   0  0  0  0  0  0  0  0  0  0  0  0
  -11.7370    6.5580    4.9650 C   0  0  0  0  0  0  0  0  0  0  0  0
  -12.1550    5.5730    4.0710 C   0  0  0  0  0  0  0  0  0  0  0  0
  -11.8700    4.2310    4.3270 C   0  0  0  0  0  0  0  0  0  0  0  0
  -11.1660    3.8760    5.4790 C   0  0  0  0  0  0  0  0  0  0  0  0
  -12.0160    7.8660    4.7150 O   0  0  0  0  0  0  0  0  0  0  0  0
   -6.8990    7.6510    9.7710 O   0  0  0  0  0  0  0  0  0  0  0  0
   -6.5840    2.9345    5.1819 S   0  0  0  0  0  0  0  0  0  0  0  0
   -7.5488    2.2378    3.9966 C   0  0  0  0  0  0  0  0  0  0  0  0
   -7.1047    1.1868    3.1258 N   0  0  0  0  0  0  0  0  0  0  0  0
   -7.8928    0.5396    2.1113 C   0  0  0  0  0  0  0  0  0  0  0  0
   -9.3281    0.8867    1.8588 C   0  0  0  0  0  0  0  0  0  0  0  0
   -7.3557   -0.3523    1.4010 O   0  0  0  0  0  0  0  0  0  0  0  0
   -8.7733    2.8069    3.9517 N   0  0  0  0  0  0  0  0  0  0  0  0
   -8.9159    3.7931    4.8790 C   0  0  0  0  0  0  0  0  0  0  0  0
  -10.1906    4.5756    4.9708 C   0  0  0  0  0  0  0  0  0  0  0  0
  1  3  4  0
  1 14  4  0
  1  2  1  0
  3  4  4  0
  4  5  4  0
  5  6  4  0
  5 22  1  0
  6  7  1  0
  6 14  4  0
  7  8  1  0
  8  9  4  0
  8 12  4  0
  9 10  4  0
 10 11  4  0
 11 12  4  0
 12 13  1  0
 13 14  1  0
 13 15  1  6
 15 16  4  0
 15 20  4  0
 16 17  4  0
 17 18  4  0
 17 21  1  0
 18 19  4  0
 19 20  4  0
 23 24  4  0
 24 25  1  0
 25 26  1  0
 26 27  1  0
 26 28  2  0
 24 29  4  0
 29 30  4  0
 30 31  1  0
  2 23  4  0
  2 30  4  0
M  END
$$$$

     RDKit          3D

 31 35  0  0  0  0  0  0  0  0999 V2000
   -7.6410    4.9930    6.8080 C   0  0  0  0  0  0  0  0  0  1  0  0
   -7.7310    4.0530    5.7140 C   0  0  0  0  0  0  0  0  0  2  0  0
   -6.4520    5.6300    6.8680 N   0  0  0  0  0  0  0  0  0  0  0  0
   -6.2260    6.5240    7.8670 N   0  0  0  0  0  0  0  0  0  0  0  0
   -7.1930    6.7500    8.7820 C   0  0  0  0  0  0  0  0  0  0  0  0
   -8.4240    6.1170    8.7580 C   0  0  0  0  0  0  0  0  0  0  0  0
   -9.3950    6.3570    9.7450 N   0  0  0  0  0  0  0  0  0  0  0  0
  -10.5620    5.6840    9.7600 C   0  0  0  0  0  0  0  0  0  0  0  0
  -11.5770    5.6820   10.5960 N   0  0  0  0  0  0  0  0  0  0  0  0
  -12.4690    4.7490   10.1080 N   0  0  0  0  0  0  0  0  0  0  0  0
  -12.0160    4.1880    8.9920 N   0  0  0  0  0  0  0  0  0  0  0  0
  -10.8400    4.7900    8.7610 N   0  0  0  0  0  0  0  0  0  0  0  0
   -9.9950    4.4790    7.6090 C   0  0  0  0  0  0  0  0  0  0  0  0
   -8.6630    5.2070    7.7200 C   0  0  0  0  0  0  0  0  0  0  0  0
  -10.7490    4.8610    6.3730 C   0  0  0  0  0  0  0  0  0  0  0  0
  -11.0350    6.2020    6.1170 C   0  0  0  0  0  0  0  0  0  0  0  0
  -11.7370    6.5580    4.9650 C   0  0  0  0  0  0  0  0  0  0  0  0
  -12.1550    5.5730    4.0710 C   0  0  0  0  0  0  0  0  0  0  0  0
  -11.8700    4.2310    4.3270 C   0  0  0  0  0  0  0  0  0  0  0  0
  -11.1660    3.8760    5.4790 C   0  0  0  0  0  0  0  0  0  0  0  0
  -12.0160    7.8660    4.7150 O   0  0  0  0  0  0  0  0  0  0  0  0
   -6.8990    7.6510    9.7710 O   0  0  0  0  0  0  0  0  0  0  0  0
   -6.6024    2.9028    5.2154 S   0  0  0  0  0  0  0  0  0  0  0  0
   -7.5391    2.2759    3.9703 C   0  0  0  0  0  0  0  0  0  0  0  0
   -7.1091    1.2194    3.1021 N   0  0  0  0  0  0  0  0  0  0  0  0
   -7.9086    0.6829    2.0362 C   0  0  0  0  0  0  0  0  0  0  0  0
   -7.3785   -0.4266    1.1859 C   0  0  0  0  0  0  0  0  0  0  0  0
   -9.0448    1.1629    1.7776 O   0  0  0  0  0  0  0  0  0  0  0  0
   -8.7376    2.8940    3.8810 N   0  0  0  0  0  0  0  0  0  0  0  0
   -8.8802    3.8655    4.8234 C   0  0  0  0  0  0  0  0  0  0  0  0
  -10.1166    4.7086    4.8742 C   0  0  0  0  0  0  0  0  0  0  0  0
  1  3  4  0
  1 14  4  0
  1  2  1  0
  3  4  4  0
  4  5  4  0
  5  6  4  0
  5 22  1  0
  6  7  1  0
  6 14  4  0
  7  8  1  0
  8  9  4  0
  8 12  4  0
  9 10  4  0
 10 11  4  0
 11 12  4  0
 12 13  1  0
 13 14  1  0
 13 15  1  6
 15 16  4  0
 15 20  4  0
 16 17  4  0
 17 18  4  0
 17 21  1  0
 18 19  4  0
 19 20  4  0
 23 24  4  0
 24 25  1  0
 25 26  1  0
 26 27  1  0
 26 28  2  0
 24 29  4  0
 29 30  4  0
 30 31  1  0
  2 23  4  0
  2 30  4  0
M  END
$$$$

     RDKit          3D

 44 50  0  0  0  0  0  0  0  0999 V2000
   -7.6410    4.9930    6.8080 C   0  0  0  0  0  0  0  0  0  1  0  0
   -7.7310    4.0530    5.7140 C   0  0  0  0  0  0  0  0  0  2  0  0
   -6.4520    5.6300    6.8680 N   0  0  0  0  0  0  0  0  0  0  0  0
   -6.2260    6.5240    7.8670 N   0  0  0  0  0  0  0  0  0  0  0  0
   -7.1930    6.7500    8.7820 C   0  0  0  0  0  0  0  0  0  0  0  0
   -8.4240    6.1170    8.7580 C   0  0  0  0  0  0  0  0  0  0  0  0
   -9.3950    6.3570    9.7450 N   0  0  0  0  0  0  0  0  0  0  0  0
  -10.5620    5.6840    9.7600 C   0  0  0  0  0  0  0  0  0  0  0  0
  -11.5770    5.6820   10.5960 N   0  0  0  0  0  0  0  0  0  0  0  0
  -12.4690    4.7490   10.1080 N   0  0  0  0  0  0  0  0  0  0  0  0
  -12.0160    4.1880    8.9920 N   0  0  0  0  0  0  0  0  0  0  0  0
  -10.8400    4.7900    8.7610 N   0  0  0  0  0  0  0  0  0  0  0  0
   -9.9950    4.4790    7.6090 C   0  0  0  0  0  0  0  0  0  0  0  0
   -8.6630    5.2070    7.7200 C   0  0  0  0  0  0  0  0  0  0  0  0
  -10.7490    4.8610    6.3730 C   0  0  0  0  0  0  0  0  0  0  0  0
  -11.0350    6.2020    6.1170 C   0  0  0  0  0  0  0  0  0  0  0  0
  -11.7370    6.5580    4.9650 C   0  0  0  0  0  0  0  0  0  0  0  0
  -12.1550    5.5730    4.0710 C   0  0  0  0  0  0  0  0  0  0  0  0
  -11.8700    4.2310    4.3270 C   0  0  0  0  0  0  0  0  0  0  0  0
  -11.1660    3.8760    5.4790 C   0  0  0  0  0  0  0  0  0  0  0  0
  -12.0160    7.8660    4.7150 O   0  0  0  0  0  0  0  0  0  0  0  0
   -6.8990    7.6510    9.7710 O   0  0  0  0  0  0  0  0  0  0  0  0
   -6.9522    2.9925    5.4200 N   0  0  0  0  0  0  0  0  0  0  0  0
   -7.4568    2.3091    4.4028 N   0  0  0  0  0  0  0  0  0  0  0  0
   -8.6151    2.9072    4.0667 C   0  0  0  0  0  0  0  0  0  0  0  0
   -9.6599    2.3528    2.7166 S   0  0  0  0  0  0  0  0  0  0  0  0
  -10.4483    0.9972    3.6615 C   0  0  0  0  0  0  0  0  0  0  0  0
  -11.4924    1.5442    4.6391 C   0  0  0  0  0  0  0  0  0  0  0  0
  -11.0916    0.0407    2.6841 C   0  0  0  0  0  0  0  0  0  0  0  0
  -12.0837    0.4457    2.0178 O   0  0  0  0  0  0  0  0  0  0  0  0
  -10.5897   -1.3011    2.4763 N   0  0  0  0  0  0  0  0  0  0  0  0
   -9.2118   -1.6575    2.8617 C   0  0  0  0  0  0  0  0  0  0  0  0
   -8.7937   -3.0220    2.2974 C   0  0  0  0  0  0  0  0  0  0  0  0
   -9.2370   -3.1490    0.8994 N   0  0  0  0  0  0  0  0  0  0  0  0
   -8.3370   -3.5923   -0.1385 C   0  0  0  0  0  0  0  0  0  0  0  0
   -8.7792   -3.7103   -1.4224 N   0  0  0  0  0  0  0  0  0  0  0  0
   -7.9553   -4.1314   -2.4169 C   0  0  0  0  0  0  0  0  0  0  0  0
   -6.6301   -4.4532   -2.1310 C   0  0  0  0  0  0  0  0  0  0  0  0
   -6.1875   -4.3304   -0.8153 C   0  0  0  0  0  0  0  0  0  0  0  0
   -7.0431   -3.9067    0.1510 N   0  0  0  0  0  0  0  0  0  0  0  0
  -10.6306   -2.8238    0.5527 C   0  0  0  0  0  0  0  0  0  0  0  0
  -11.4049   -2.2981    1.7654 C   0  0  0  0  0  0  0  0  0  0  0  0
   -8.8648    3.9783    4.8438 N   0  0  0  0  0  0  0  0  0  0  0  0
   -9.9358    4.9595    4.6832 C   0  0  0  0  0  0  0  0  0  0  0  0
  1  3  4  0
  1 14  4  0
  1  2  1  0
  3  4  4  0
  4  5  4  0
  5  6  4  0
  5 22  1  0
  6  7  1  0
  6 14  4  0
  7  8  1  0
  8  9  4  0
  8 12  4  0
  9 10  4  0
 10 11  4  0
 11 12  4  0
 12 13  1  0
 13 14  1  0
 13 15  1  6
 15 16  4  0
 15 20  4  0
 16 17  4  0
 17 18  4  0
 17 21  1  0
 18 19  4  0
 19 20  4  0
 23 24  4  0
 24 25  4  0
 25 26  1  0
 26 27  1  0
 27 28  1  0
 27 29  1  0
 29 30  2  0
 29 31  1  0
 31 32  1  0
 32 33  1  0
 33 34  1  0
 34 35  1  0
 35 36  4  0
 36 37  4  0
 37 38  4  0
 38 39  4  0
 39 40  4  0
 34 41  1  0
 41 42  1  0
 25 43  4  0
 43 44  1  0
 42 31  1  0
 40 35  4  0
  2 23  4  0
  2 43  4  0
M  END
$$$$

     RDKit          3D

 44 50  0  0  0  0  0  0  0  0999 V2000
   -7.6410    4.9930    6.8080 C   0  0  0  0  0  0  0  0  0  1  0  0
   -7.7310    4.0530    5.7140 C   0  0  0  0  0  0  0  0  0  2  0  0
   -6.4520    5.6300    6.8680 N   0  0  0  0  0  0  0  0  0  0  0  0
   -6.2260    6.5240    7.8670 N   0  0  0  0  0  0  0  0  0  0  0  0
   -7.1930    6.7500    8.7820 C   0  0  0  0  0  0  0  0  0  0  0  0
   -8.4240    6.1170    8.7580 C   0  0  0  0  0  0  0  0  0  0  0  0
   -9.3950    6.3570    9.7450 N   0  0  0  0  0  0  0  0  0  0  0  0
  -10.5620    5.6840    9.7600 C   0  0  0  0  0  0  0  0  0  0  0  0
  -11.5770    5.6820   10.5960 N   0  0  0  0  0  0  0  0  0  0  0  0
  -12.4690    4.7490   10.1080 N   0  0  0  0  0  0  0  0  0  0  0  0
  -12.0160    4.1880    8.9920 N   0  0  0  0  0  0  0  0  0  0  0  0
  -10.8400    4.7900    8.7610 N   0  0  0  0  0  0  0  0  0  0  0  0
   -9.9950    4.4790    7.6090 C   0  0  0  0  0  0  0  0  0  0  0  0
   -8.6630    5.2070    7.7200 C   0  0  0  0  0  0  0  0  0  0  0  0
  -10.7490    4.8610    6.3730 C   0  0  0  0  0  0  0  0  0  0  0  0
  -11.0350    6.2020    6.1170 C   0  0  0  0  0  0  0  0  0  0  0  0
  -11.7370    6.5580    4.9650 C   0  0  0  0  0  0  0  0  0  0  0  0
  -12.1550    5.5730    4.0710 C   0  0  0  0  0  0  0  0  0  0  0  0
  -11.8700    4.2310    4.3270 C   0  0  0  0  0  0  0  0  0  0  0  0
  -11.1660    3.8760    5.4790 C   0  0  0  0  0  0  0  0  0  0  0  0
  -12.0160    7.8660    4.7150 O   0  0  0  0  0  0  0  0  0  0  0  0
   -6.8990    7.6510    9.7710 O   0  0  0  0  0  0  0  0  0  0  0  0
   -7.0852    2.8696    5.5529 N   0  0  0  0  0  0  0  0  0  0  0  0
   -7.5495    2.2363    4.4845 N   0  0  0  0  0  0  0  0  0  0  0  0
   -8.5425    2.9934    3.9808 C   0  0  0  0  0  0  0  0  0  0  0  0
   -9.4689    2.5613    2.5031 S   0  0  0  0  0  0  0  0  0  0  0  0
   -8.1430    3.0368    1.3318 C   0  0  0  0  0  0  0  0  0  0  0  0
   -8.0035    4.5586    1.2373 C   0  0  0  0  0  0  0  0  0  0  0  0
   -8.4532    2.4527   -0.0213 C   0  0  0  0  0  0  0  0  0  0  0  0
   -9.4384    2.8920   -0.6768 O   0  0  0  0  0  0  0  0  0  0  0  0
   -7.6349    1.4130   -0.5826 N   0  0  0  0  0  0  0  0  0  0  0  0
   -7.2564    0.2354    0.2084 C   0  0  0  0  0  0  0  0  0  0  0  0
   -7.8818   -1.0163   -0.4147 C   0  0  0  0  0  0  0  0  0  0  0  0
   -7.5998   -1.0483   -1.8590 N   0  0  0  0  0  0  0  0  0  0  0  0
   -7.0179   -2.2121   -2.4877 C   0  0  0  0  0  0  0  0  0  0  0  0
   -6.8906   -3.3782   -1.7946 N   0  0  0  0  0  0  0  0  0  0  0  0
   -6.3459   -4.4828   -2.3664 C   0  0  0  0  0  0  0  0  0  0  0  0
   -5.9041   -4.4352   -3.6878 C   0  0  0  0  0  0  0  0  0  0  0  0
   -6.0399   -3.2397   -4.3879 C   0  0  0  0  0  0  0  0  0  0  0  0
   -6.5908   -2.1579   -3.7800 N   0  0  0  0  0  0  0  0  0  0  0  0
   -7.9778    0.1390   -2.6421 C   0  0  0  0  0  0  0  0  0  0  0  0
   -7.3477    1.3857   -2.0204 C   0  0  0  0  0  0  0  0  0  0  0  0
   -8.7322    4.1096    4.7092 N   0  0  0  0  0  0  0  0  0  0  0  0
   -9.7259    5.1594    4.4989 C   0  0  0  0  0  0  0  0  0  0  0  0
  1  3  4  0
  1 14  4  0
  1  2  1  0
  3  4  4  0
  4  5  4  0
  5  6  4  0
  5 22  1  0
  6  7  1  0
  6 14  4  0
  7  8  1  0
  8  9  4  0
  8 12  4  0
  9 10  4  0
 10 11  4  0
 11 12  4  0
 12 13  1  0
 13 14  1  0
 13 15  1  6
 15 16  4  0
 15 20  4  0
 16 17  4  0
 17 18  4  0
 17 21  1  0
 18 19  4  0
 19 20  4  0
 23 24  4  0
 24 25  4  0
 25 26  1  0
 26 27  1  0
 27 28  1  0
 27 29  1  0
 29 30  2  0
 29 31  1  0
 31 32  1  0
 32 33  1  0
 33 34  1  0
 34 35  1  0
 35 36  4  0
 36 37  4  0
 37 38  4  0
 38 39  4  0
 39 40  4  0
 34 41  1  0
 41 42  1  0
 25 43  4  0
 43 44  1  0
 42 31  1  0
 40 35  4  0
  2 23  4  0
  2 43  4  0
M  END
$$$$

     RDKit          3D

 46 52  0  0  0  0  0  0  0  0999 V2000
   -7.6410    4.9930    6.8080 C   0  0  0  0  0  0  0  0  0  1  0  0
   -7.7310    4.0530    5.7140 C   0  0  0  0  0  0  0  0  0  2  0  0
   -6.4520    5.6300    6.8680 N   0  0  0  0  0  0  0  0  0  0  0  0
   -6.2260    6.5240    7.8670 N   0  0  0  0  0  0  0  0  0  0  0  0
   -7.1930    6.7500    8.7820 C   0  0  0  0  0  0  0  0  0  0  0  0
   -8.4240    6.1170    8.7580 C   0  0  0  0  0  0  0  0  0  0  0  0
   -9.3950    6.3570    9.7450 N   0  0  0  0  0  0  0  0  0  0  0  0
  -10.5620    5.6840    9.7600 C   0  0  0  0  0  0  0  0  0  0  0  0
  -11.5770    5.6820   10.5960 N   0  0  0  0  0  0  0  0  0  0  0  0
  -12.4690    4.7490   10.1080 N   0  0  0  0  0  0  0  0  0  0  0  0
  -12.0160    4.1880    8.9920 N   0  0  0  0  0  0  0  0  0  0  0  0
  -10.8400    4.7900    8.7610 N   0  0  0  0  0  0  0  0  0  0  0  0
   -9.9950    4.4790    7.6090 C   0  0  0  0  0  0  0  0  0  0  0  0
   -8.6630    5.2070    7.7200 C   0  0  0  0  0  0  0  0  0  0  0  0
  -10.7490    4.8610    6.3730 C   0  0  0  0  0  0  0  0  0  0  0  0
  -11.0350    6.2020    6.1170 C   0  0  0  0  0  0  0  0  0  0  0  0
  -11.7370    6.5580    4.9650 C   0  0  0  0  0  0  0  0  0  0  0  0
  -12.1550    5.5730    4.0710 C   0  0  0  0  0  0  0  0  0  0  0  0
  -11.8700    4.2310    4.3270 C   0  0  0  0  0  0  0  0  0  0  0  0
  -11.1660    3.8760    5.4790 C   0  0  0  0  0  0  0  0  0  0  0  0
  -12.0160    7.8660    4.7150 O   0  0  0  0  0  0  0  0  0  0  0  0
   -6.8990    7.6510    9.7710 O   0  0  0  0  0  0  0  0  0  0  0  0
   -6.9299    2.9819    5.4939 N   0  0  0  0  0  0  0  0  0  0  0  0
   -7.3460    2.3315    4.4164 N   0  0  0  0  0  0  0  0  0  0  0  0
   -8.4389    2.9776    3.9693 C   0  0  0  0  0  0  0  0  0  0  0  0
   -9.3217    2.5079    2.4797 S   0  0  0  0  0  0  0  0  0  0  0  0
   -8.2510    3.5025    1.3923 C   0  0  0  0  0  0  0  0  0  0  0  0
   -8.6934    3.3437   -0.0323 C   0  0  0  0  0  0  0  0  0  0  0  0
   -9.7729    3.8860   -0.3944 O   0  0  0  0  0  0  0  0  0  0  0  0
   -7.9089    2.6078   -0.9912 N   0  0  0  0  0  0  0  0  0  0  0  0
   -7.7382    3.1462   -2.3493 C   0  0  0  0  0  0  0  0  0  0  0  0
   -7.7647    2.0160   -3.3793 C   0  0  0  0  0  0  0  0  0  0  0  0
   -6.8685    0.9413   -2.9472 N   0  0  0  0  0  0  0  0  0  0  0  0
   -5.7056    0.6017   -3.7230 C   0  0  0  0  0  0  0  0  0  0  0  0
   -4.4300    0.8377   -3.1832 C   0  0  0  0  0  0  0  0  0  0  0  0
   -3.2834    0.6028   -3.9429 C   0  0  0  0  0  0  0  0  0  0  0  0
   -3.3971    0.1354   -5.2519 C   0  0  0  0  0  0  0  0  0  0  0  0
   -4.6573   -0.1127   -5.8009 C   0  0  0  0  0  0  0  0  0  0  0  0
   -5.8232    0.1008   -5.0442 C   0  0  0  0  0  0  0  0  0  0  0  0
   -7.1022   -0.2268   -5.6152 N   0  0  0  0  0  0  0  0  0  0  0  0
   -8.0338   -0.6420   -4.8949 O   0  0  0  0  0  0  0  0  0  0  0  0
   -7.2696   -0.2262   -6.9817 O   0  0  0  0  0  0  0  0  0  0  0  0
   -7.0774    0.3740   -1.6135 C   0  0  0  0  0  0  0  0  0  0  0  0
   -7.0519    1.4900   -0.5667 C   0  0  0  0  0  0  0  0  0  0  0  0
   -8.7499    4.0309    4.7498 N   0  0  0  0  0  0  0  0  0  0  0  0
   -9.7321    5.0769    4.4656 C   0  0  0  0  0  0  0  0  0  0  0  0
  1  3  4  0
  1 14  4  0
  1  2  1  0
  3  4  4  0
  4  5  4  0
  5  6  4  0
  5 22  1  0
  6  7  1  0
  6 14  4  0
  7  8  1  0
  8  9  4  0
  8 12  4  0
  9 10  4  0
 10 11  4  0
 11 12  4  0
 12 13  1  0
 13 14  1  0
 13 15  1  6
 15 16  4  0
 15 20  4  0
 16 17  4  0
 17 18  4  0
 17 21  1  0
 18 19  4  0
 19 20  4  0
 23 24  4  0
 24 25  4  0
 25 26  1  0
 26 27  1  0
 27 28  1  0
 28 29  2  0
 28 30  1  0
 30 31  1  0
 31 32  1  0
 32 33  1  0
 33 34  1  0
 34 35  4  0
 35 36  4  0
 36 37  4  0
 37 38  4  0
 38 39  4  0
 39 40  1  0
 40 41  2  0
 40 42  1  0
 33 43  1  0
 43 44  1  0
 25 45  4  0
 45 46  1  0
 44 30  1  0
 39 34  4  0
  2 23  4  0
  2 45  4  0
M  CHG  2  40   1  42  -1
M  END
$$$$

     RDKit          3D

 40 45  0  0  0  0  0  0  0  0999 V2000
   -7.6410    4.9930    6.8080 C   0  0  0  0  0  0  0  0  0  1  0  0
   -7.7310    4.0530    5.7140 C   0  0  0  0  0  0  0  0  0  2  0  0
   -6.4520    5.6300    6.8680 N   0  0  0  0  0  0  0  0  0  0  0  0
   -6.2260    6.5240    7.8670 N   0  0  0  0  0  0  0  0  0  0  0  0
   -7.1930    6.7500    8.7820 C   0  0  0  0  0  0  0  0  0  0  0  0
   -8.4240    6.1170    8.7580 C   0  0  0  0  0  0  0  0  0  0  0  0
   -9.3950    6.3570    9.7450 N   0  0  0  0  0  0  0  0  0  0  0  0
  -10.5620    5.6840    9.7600 C   0  0  0  0  0  0  0  0  0  0  0  0
  -11.5770    5.6820   10.5960 N   0  0  0  0  0  0  0  0  0  0  0  0
  -12.4690    4.7490   10.1080 N   0  0  0  0  0  0  0  0  0  0  0  0
  -12.0160    4.1880    8.9920 N   0  0  0  0  0  0  0  0  0  0  0  0
  -10.8400    4.7900    8.7610 N   0  0  0  0  0  0  0  0  0  0  0  0
   -9.9950    4.4790    7.6090 C   0  0  0  0  0  0  0  0  0  0  0  0
   -8.6630    5.2070    7.7200 C   0  0  0  0  0  0  0  0  0  0  0  0
  -10.7490    4.8610    6.3730 C   0  0  0  0  0  0  0  0  0  0  0  0
  -11.0350    6.2020    6.1170 C   0  0  0  0  0  0  0  0  0  0  0  0
  -11.7370    6.5580    4.9650 C   0  0  0  0  0  0  0  0  0  0  0  0
  -12.1550    5.5730    4.0710 C   0  0  0  0  0  0  0  0  0  0  0  0
  -11.8700    4.2310    4.3270 C   0  0  0  0  0  0  0  0  0  0  0  0
  -11.1660    3.8760    5.4790 C   0  0  0  0  0  0  0  0  0  0  0  0
  -12.0160    7.8660    4.7150 O   0  0  0  0  0  0  0  0  0  0  0  0
   -6.8990    7.6510    9.7710 O   0  0  0  0  0  0  0  0  0  0  0  0
   -6.8348    3.1074    5.3525 N   0  0  0  0  0  0  0  0  0  0  0  0
   -7.3220    2.3721    4.3611 N   0  0  0  0  0  0  0  0  0  0  0  0
   -8.5592    2.8397    4.0951 C   0  0  0  0  0  0  0  0  0  0  0  0
   -9.6428    2.1504    2.8338 S   0  0  0  0  0  0  0  0  0  0  0  0
   -8.9073    2.9591    1.3467 C   0  0  0  0  0  0  0  0  0  0  0  0
   -8.3595    4.3704    1.5836 C   0  0  0  0  0  0  0  0  0  0  0  0
   -7.8607    2.0624    0.7371 C   0  0  0  0  0  0  0  0  0  0  0  0
   -6.9018    1.6371    1.4376 O   0  0  0  0  0  0  0  0  0  0  0  0
   -7.9502    1.7069   -0.6464 N   0  0  0  0  0  0  0  0  0  0  0  0
   -7.6093    0.3584   -1.1340 C   0  0  0  0  0  0  0  0  0  0  0  0
   -8.2955    0.0923   -2.4920 C   0  0  0  0  0  0  0  0  0  0  0  0
   -7.9788   -1.3151   -3.0164 C   0  0  0  0  0  0  0  0  0  0  0  0
   -6.4645   -1.5232   -3.1421 C   0  0  0  0  0  0  0  0  0  0  0  0
   -5.7567   -1.2632   -1.8011 C   0  0  0  0  0  0  0  0  0  0  0  0
   -6.0703    0.1378   -1.2203 C   0  0  0  0  0  0  0  0  0  0  0  0
   -5.3384    1.2521   -1.9971 C   0  0  0  0  0  0  0  0  0  0  0  0
   -8.8824    3.8694    4.9023 N   0  0  0  0  0  0  0  0  0  0  0  0
  -10.1416    4.6164    4.9448 C   0  0  0  0  0  0  0  0  0  0  0  0
  1  3  4  0
  1 14  4  0
  1  2  1  0
  3  4  4  0
  4  5  4  0
  5  6  4  0
  5 22  1  0
  6  7  1  0
  6 14  4  0
  7  8  1  0
  8  9  4  0
  8 12  4  0
  9 10  4  0
 10 11  4  0
 11 12  4  0
 12 13  1  0
 13 14  1  0
 13 15  1  6
 15 16  4  0
 15 20  4  0
 16 17  4  0
 17 18  4  0
 17 21  1  0
 18 19  4  0
 19 20  4  0
 23 24  4  0
 24 25  4  0
 25 26  1  0
 26 27  1  0
 27 28  1  0
 27 29  1  0
 29 30  2  0
 29 31  1  0
 31 32  1  0
 32 33  1  0
 33 34  1  0
 34 35  1  0
 35 36  1  0
 36 37  1  0
 37 38  1  0
 25 39  4  0
 39 40  1  0
 37 32  1  0
  2 23  4  0
  2 39  4  0
M  END
$$$$

     RDKit          3D

 40 45  0  0  0  0  0  0  0  0999 V2000
   -7.6410    4.9930    6.8080 C   0  0  0  0  0  0  0  0  0  1  0  0
   -7.7310    4.0530    5.7140 C   0  0  0  0  0  0  0  0  0  2  0  0
   -6.4520    5.6300    6.8680 N   0  0  0  0  0  0  0  0  0  0  0  0
   -6.2260    6.5240    7.8670 N   0  0  0  0  0  0  0  0  0  0  0  0
   -7.1930    6.7500    8.7820 C   0  0  0  0  0  0  0  0  0  0  0  0
   -8.4240    6.1170    8.7580 C   0  0  0  0  0  0  0  0  0  0  0  0
   -9.3950    6.3570    9.7450 N   0  0  0  0  0  0  0  0  0  0  0  0
  -10.5620    5.6840    9.7600 C   0  0  0  0  0  0  0  0  0  0  0  0
  -11.5770    5.6820   10.5960 N   0  0  0  0  0  0  0  0  0  0  0  0
  -12.4690    4.7490   10.1080 N   0  0  0  0  0  0  0  0  0  0  0  0
  -12.0160    4.1880    8.9920 N   0  0  0  0  0  0  0  0  0  0  0  0
  -10.8400    4.7900    8.7610 N   0  0  0  0  0  0  0  0  0  0  0  0
   -9.9950    4.4790    7.6090 C   0  0  0  0  0  0  0  0  0  0  0  0
   -8.6630    5.2070    7.7200 C   0  0  0  0  0  0  0  0  0  0  0  0
  -10.7490    4.8610    6.3730 C   0  0  0  0  0  0  0  0  0  0  0  0
  -11.0350    6.2020    6.1170 C   0  0  0  0  0  0  0  0  0  0  0  0
  -11.7370    6.5580    4.9650 C   0  0  0  0  0  0  0  0  0  0  0  0
  -12.1550    5.5730    4.0710 C   0  0  0  0  0  0  0  0  0  0  0  0
  -11.8700    4.2310    4.3270 C   0  0  0  0  0  0  0  0  0  0  0  0
  -11.1660    3.8760    5.4790 C   0  0  0  0  0  0  0  0  0  0  0  0
  -12.0160    7.8660    4.7150 O   0  0  0  0  0  0  0  0  0  0  0  0
   -6.8990    7.6510    9.7710 O   0  0  0  0  0  0  0  0  0  0  0  0
   -6.7893    3.1905    5.2811 N   0  0  0  0  0  0  0  0  0  0  0  0
   -7.2668    2.4539    4.2887 N   0  0  0  0  0  0  0  0  0  0  0  0
   -8.5444    2.8319    4.1019 C   0  0  0  0  0  0  0  0  0  0  0  0
   -9.6078    2.1237    2.8398 S   0  0  0  0  0  0  0  0  0  0  0  0
  -10.0738    0.6454    3.8152 C   0  0  0  0  0  0  0  0  0  0  0  0
  -11.0347    1.0058    4.9511 C   0  0  0  0  0  0  0  0  0  0  0  0
  -10.7018   -0.3690    2.9001 C   0  0  0  0  0  0  0  0  0  0  0  0
  -10.1629   -1.5023    2.7746 O   0  0  0  0  0  0  0  0  0  0  0  0
  -11.9025   -0.0565    2.1751 N   0  0  0  0  0  0  0  0  0  0  0  0
  -12.5727   -1.0366    1.3115 C   0  0  0  0  0  0  0  0  0  0  0  0
  -13.5259   -0.3093    0.3338 C   0  0  0  0  0  0  0  0  0  0  0  0
  -14.4869   -1.2961   -0.3325 C   0  0  0  0  0  0  0  0  0  0  0  0
  -15.3926   -2.0050    0.6945 C   0  0  0  0  0  0  0  0  0  0  0  0
  -14.8343   -1.9816    2.1310 C   0  0  0  0  0  0  0  0  0  0  0  0
  -13.2975   -2.1202    2.1798 C   0  0  0  0  0  0  0  0  0  0  0  0
  -12.8635   -3.5422    1.7870 C   0  0  0  0  0  0  0  0  0  0  0  0
   -8.9004    3.8179    4.9492 N   0  0  0  0  0  0  0  0  0  0  0  0
  -10.1691    4.5452    4.9913 C   0  0  0  0  0  0  0  0  0  0  0  0
  1  3  4  0
  1 14  4  0
  1  2  1  0
  3  4  4  0
  4  5  4  0
  5  6  4  0
  5 22  1  0
  6  7  1  0
  6 14  4  0
  7  8  1  0
  8  9  4  0
  8 12  4  0
  9 10  4  0
 10 11  4  0
 11 12  4  0
 12 13  1  0
 13 14  1  0
 13 15  1  6
 15 16  4  0
 15 20  4  0
 16 17  4  0
 17 18  4  0
 17 21  1  0
 18 19  4  0
 19 20  4  0
 23 24  4  0
 24 25  4  0
 25 26  1  0
 26 27  1  0
 27 28  1  0
 27 29  1  0
 29 30  2  0
 29 31  1  0
 31 32  1  0
 32 33  1  0
 33 34  1  0
 34 35  1  0
 35 36  1  0
 36 37  1  0
 37 38  1  0
 25 39  4  0
 39 40  1  0
 37 32  1  0
  2 23  4  0
  2 39  4  0
M  END
$$$$

     RDKit          3D

 44 50  0  0  0  0  0  0  0  0999 V2000
   -7.6410    4.9930    6.8080 C   0  0  0  0  0  0  0  0  0  1  0  0
   -7.7310    4.0530    5.7140 C   0  0  0  0  0  0  0  0  0  2  0  0
   -6.4520    5.6300    6.8680 N   0  0  0  0  0  0  0  0  0  0  0  0
   -6.2260    6.5240    7.8670 N   0  0  0  0  0  0  0  0  0  0  0  0
   -7.1930    6.7500    8.7820 C   0  0  0  0  0  0  0  0  0  0  0  0
   -8.4240    6.1170    8.7580 C   0  0  0  0  0  0  0  0  0  0  0  0
   -9.3950    6.3570    9.7450 N   0  0  0  0  0  0  0  0  0  0  0  0
  -10.5620    5.6840    9.7600 C   0  0  0  0  0  0  0  0  0  0  0  0
  -11.5770    5.6820   10.5960 N   0  0  0  0  0  0  0  0  0  0  0  0
  -12.4690    4.7490   10.1080 N   0  0  0  0  0  0  0  0  0  0  0  0
  -12.0160    4.1880    8.9920 N   0  0  0  0  0  0  0  0  0  0  0  0
  -10.8400    4.7900    8.7610 N   0  0  0  0  0  0  0  0  0  0  0  0
   -9.9950    4.4790    7.6090 C   0  0  0  0  0  0  0  0  0  0  0  0
   -8.6630    5.2070    7.7200 C   0  0  0  0  0  0  0  0  0  0  0  0
  -10.7490    4.8610    6.3730 C   0  0  0  0  0  0  0  0  0  0  0  0
  -11.0350    6.2020    6.1170 C   0  0  0  0  0  0  0  0  0  0  0  0
  -11.7370    6.5580    4.9650 C   0  0  0  0  0  0  0  0  0  0  0  0
  -12.1550    5.5730    4.0710 C   0  0  0  0  0  0  0  0  0  0  0  0
  -11.8700    4.2310    4.3270 C   0  0  0  0  0  0  0  0  0  0  0  0
  -11.1660    3.8760    5.4790 C   0  0  0  0  0  0  0  0  0  0  0  0
  -12.0160    7.8660    4.7150 O   0  0  0  0  0  0  0  0  0  0  0  0
   -6.8990    7.6510    9.7710 O   0  0  0  0  0  0  0  0  0  0  0  0
   -6.7909    3.3210    4.9934 C   0  0  0  0  0  0  0  0  0  0  0  0
   -7.3417    2.5612    4.0199 N   0  0  0  0  0  0  0  0  0  0  0  0
   -8.6544    2.7130    4.0978 N   0  0  0  0  0  0  0  0  0  0  0  0
   -8.9505    3.5814    5.0690 C   0  0  0  0  0  0  0  0  0  0  0  0
  -10.2740    4.0842    5.2470 N   0  0  0  0  0  0  0  0  0  0  0  0
  -11.2674    3.5518    4.5955 C   0  0  0  0  0  0  0  0  0  0  0  0
  -12.5448    4.0763    4.7668 O   0  0  0  0  0  0  0  0  0  0  0  0
  -11.0656    2.3279    3.7154 C   0  0  0  0  0  0  0  0  0  0  0  0
   -9.6365    2.2530    3.1162 C   0  0  0  0  0  0  0  0  0  0  0  0
   -9.3198    0.8524    2.6636 C   0  0  0  0  0  0  0  0  0  0  0  0
   -9.1180    0.6318    1.4386 O   0  0  0  0  0  0  0  0  0  0  0  0
   -9.2058   -0.2108    3.6240 N   0  0  0  0  0  0  0  0  0  0  0  0
   -9.0918   -1.6000    3.2682 C   0  0  0  0  0  0  0  0  0  0  0  0
   -9.8393   -2.1301    2.2037 C   0  0  0  0  0  0  0  0  0  0  0  0
   -9.7467   -3.4834    1.8777 C   0  0  0  0  0  0  0  0  0  0  0  0
   -8.9182   -4.3359    2.6110 C   0  0  0  0  0  0  0  0  0  0  0  0
   -8.8608   -5.6874    2.2392 O   0  0  0  0  0  0  0  0  0  0  0  0
   -8.0556   -6.6675    2.8859 C   0  0  0  0  0  0  0  0  0  0  0  0
   -8.1796   -3.8165    3.6908 C   0  0  0  0  0  0  0  0  0  0  0  0
   -8.2661   -2.4505    4.0279 C   0  0  0  0  0  0  0  0  0  0  0  0
   -7.5411   -1.9035    5.0997 O   0  0  0  0  0  0  0  0  0  0  0  0
   -6.6526   -2.6377    5.9356 C   0  0  0  0  0  0  0  0  0  0  0  0
  1  3  4  0
  1 14  4  0
  1  2  1  0
  3  4  4  0
  4  5  4  0
  5  6  4  0
  5 22  1  0
  6  7  1  0
  6 14  4  0
  7  8  1  0
  8  9  4  0
  8 12  4  0
  9 10  4  0
 10 11  4  0
 11 12  4  0
 12 13  1  0
 13 14  1  0
 13 15  1  6
 15 16  4  0
 15 20  4  0
 16 17  4  0
 17 18  4  0
 17 21  1  0
 18 19  4  0
 19 20  4  0
 23 24  4  0
 24 25  4  0
 25 26  4  0
 26 27  1  0
 27 28  2  0
 28 29  1  0
 28 30  1  0
 30 31  1  0
 31 32  1  0
 32 33  2  0
 32 34  1  0
 34 35  1  0
 35 36  4  0
 36 37  4  0
 37 38  4  0
 38 39  1  0
 39 40  1  0
 38 41  4  0
 41 42  4  0
 42 43  1  0
 43 44  1  0
 42 35  4  0
 31 25  1  0
  2 23  4  0
  2 26  4  0
M  END
$$$$

     RDKit          3D

 32 37  0  0  0  0  0  0  0  0999 V2000
   -7.6410    4.9930    6.8080 C   0  0  0  0  0  0  0  0  0  1  0  0
   -7.7310    4.0530    5.7140 C   0  0  0  0  0  0  0  0  0  2  0  0
   -6.4520    5.6300    6.8680 N   0  0  0  0  0  0  0  0  0  0  0  0
   -6.2260    6.5240    7.8670 N   0  0  0  0  0  0  0  0  0  0  0  0
   -7.1930    6.7500    8.7820 C   0  0  0  0  0  0  0  0  0  0  0  0
   -8.4240    6.1170    8.7580 C   0  0  0  0  0  0  0  0  0  0  0  0
   -9.3950    6.3570    9.7450 N   0  0  0  0  0  0  0  0  0  0  0  0
  -10.5620    5.6840    9.7600 C   0  0  0  0  0  0  0  0  0  0  0  0
  -11.5770    5.6820   10.5960 N   0  0  0  0  0  0  0  0  0  0  0  0
  -12.4690    4.7490   10.1080 N   0  0  0  0  0  0  0  0  0  0  0  0
  -12.0160    4.1880    8.9920 N   0  0  0  0  0  0  0  0  0  0  0  0
  -10.8400    4.7900    8.7610 N   0  0  0  0  0  0  0  0  0  0  0  0
   -9.9950    4.4790    7.6090 C   0  0  0  0  0  0  0  0  0  0  0  0
   -8.6630    5.2070    7.7200 C   0  0  0  0  0  0  0  0  0  0  0  0
  -10.7490    4.8610    6.3730 C   0  0  0  0  0  0  0  0  0  0  0  0
  -11.0350    6.2020    6.1170 C   0  0  0  0  0  0  0  0  0  0  0  0
  -11.7370    6.5580    4.9650 C   0  0  0  0  0  0  0  0  0  0  0  0
  -12.1550    5.5730    4.0710 C   0  0  0  0  0  0  0  0  0  0  0  0
  -11.8700    4.2310    4.3270 C   0  0  0  0  0  0  0  0  0  0  0  0
  -11.1660    3.8760    5.4790 C   0  0  0  0  0  0  0  0  0  0  0  0
  -12.0160    7.8660    4.7150 O   0  0  0  0  0  0  0  0  0  0  0  0
   -6.8990    7.6510    9.7710 O   0  0  0  0  0  0  0  0  0  0  0  0
   -6.8179    3.0569    5.3642 C   0  0  0  0  0  0  0  0  0  0  0  0
   -7.0419    2.0989    4.3647 C   0  0  0  0  0  0  0  0  0  0  0  0
   -6.0469    1.1661    4.0316 C   0  0  0  0  0  0  0  0  0  0  0  0
   -6.2819    0.2151    3.0344 C   0  0  0  0  0  0  0  0  0  0  0  0
   -7.5083    0.1864    2.3652 C   0  0  0  0  0  0  0  0  0  0  0  0
   -8.5082    1.1078    2.6893 C   0  0  0  0  0  0  0  0  0  0  0  0
   -8.2844    2.0679    3.6886 C   0  0  0  0  0  0  0  0  0  0  0  0
   -9.2813    2.9926    4.0277 C   0  0  0  0  0  0  0  0  0  0  0  0
   -9.0511    3.9476    5.0233 C   0  0  0  0  0  0  0  0  0  0  0  0
  -10.0571    4.8576    5.3321 O   0  0  0  0  0  0  0  0  0  0  0  0
  1  3  4  0
  1 14  4  0
  1  2  1  0
  3  4  4  0
  4  5  4  0
  5  6  4  0
  5 22  1  0
  6  7  1  0
  6 14  4  0
  7  8  1  0
  8  9  4  0
  8 12  4  0
  9 10  4  0
 10 11  4  0
 11 12  4  0
 12 13  1  0
 13 14  1  0
 13 15  1  6
 15 16  4  0
 15 20  4  0
 16 17  4  0
 17 18  4  0
 17 21  1  0
 18 19  4  0
 19 20  4  0
 23 24  4  0
 24 25  4  0
 25 26  4  0
 26 27  4  0
 27 28  4  0
 28 29  4  0
 29 30  4  0
 30 31  4  0
 31 32  1  0
 29 24  4  0
  2 23  4  0
  2 31  4  0
M  CHG  1  32  -1
M  END
$$$$

     RDKit          3D

 35 40  0  0  0  0  0  0  0  0999 V2000
   -7.6410    4.9930    6.8080 C   0  0  0  0  0  0  0  0  0  1  0  0
   -7.7310    4.0530    5.7140 C   0  0  0  0  0  0  0  0  0  2  0  0
   -6.4520    5.6300    6.8680 N   0  0  0  0  0  0  0  0  0  0  0  0
   -6.2260    6.5240    7.8670 N   0  0  0  0  0  0  0  0  0  0  0  0
   -7.1930    6.7500    8.7820 C   0  0  0  0  0  0  0  0  0  0  0  0
   -8.4240    6.1170    8.7580 C   0  0  0  0  0  0  0  0  0  0  0  0
   -9.3950    6.3570    9.7450 N   0  0  0  0  0  0  0  0  0  0  0  0
  -10.5620    5.6840    9.7600 C   0  0  0  0  0  0  0  0  0  0  0  0
  -11.5770    5.6820   10.5960 N   0  0  0  0  0  0  0  0  0  0  0  0
  -12.4690    4.7490   10.1080 N   0  0  0  0  0  0  0  0  0  0  0  0
  -12.0160    4.1880    8.9920 N   0  0  0  0  0  0  0  0  0  0  0  0
  -10.8400    4.7900    8.7610 N   0  0  0  0  0  0  0  0  0  0  0  0
   -9.9950    4.4790    7.6090 C   0  0  0  0  0  0  0  0  0  0  0  0
   -8.6630    5.2070    7.7200 C   0  0  0  0  0  0  0  0  0  0  0  0
  -10.7490    4.8610    6.3730 C   0  0  0  0  0  0  0  0  0  0  0  0
  -11.0350    6.2020    6.1170 C   0  0  0  0  0  0  0  0  0  0  0  0
  -11.7370    6.5580    4.9650 C   0  0  0  0  0  0  0  0  0  0  0  0
  -12.1550    5.5730    4.0710 C   0  0  0  0  0  0  0  0  0  0  0  0
  -11.8700    4.2310    4.3270 C   0  0  0  0  0  0  0  0  0  0  0  0
  -11.1660    3.8760    5.4790 C   0  0  0  0  0  0  0  0  0  0  0  0
  -12.0160    7.8660    4.7150 O   0  0  0  0  0  0  0  0  0  0  0  0
   -6.8990    7.6510    9.7710 O   0  0  0  0  0  0  0  0  0  0  0  0
   -7.0082    2.8358    5.7110 C   0  0  0  0  0  0  0  0  0  0  0  0
   -7.1418    1.8721    4.7106 C   0  0  0  0  0  0  0  0  0  0  0  0
   -8.0524    2.0640    3.6727 C   0  0  0  0  0  0  0  0  0  0  0  0
   -8.8282    3.2236    3.6270 C   0  0  0  0  0  0  0  0  0  0  0  0
   -8.7083    4.2082    4.6252 C   0  0  0  0  0  0  0  0  0  0  0  0
   -9.5217    5.4842    4.4934 C   0  0  0  0  0  0  0  0  0  0  0  0
   -8.7005    6.6273    4.0151 N   0  0  0  0  0  0  0  0  0  0  0  0
   -9.3854    7.9267    4.2298 C   0  0  0  0  0  0  0  0  0  0  0  0
  -10.6014    8.1159    3.3106 C   0  0  0  0  0  0  0  0  0  0  0  0
  -10.2017    7.8494    1.8924 C   0  0  0  0  0  0  0  0  0  0  0  0
  -10.5304    8.6163    1.0002 O   0  0  0  0  0  0  0  0  0  0  0  0
   -9.3959    6.6245    1.5851 C   0  0  0  0  0  0  0  0  0  0  0  0
   -8.2530    6.4820    2.6051 C   0  0  0  0  0  0  0  0  0  0  0  0
  1  3  4  0
  1 14  4  0
  1  2  1  0
  3  4  4  0
  4  5  4  0
  5  6  4  0
  5 22  1  0
  6  7  1  0
  6 14  4  0
  7  8  1  0
  8  9  4  0
  8 12  4  0
  9 10  4  0
 10 11  4  0
 11 12  4  0
 12 13  1  0
 13 14  1  0
 13 15  1  6
 15 16  4  0
 15 20  4  0
 16 17  4  0
 17 18  4  0
 17 21  1  0
 18 19  4  0
 19 20  4  0
 23 24  4  0
 24 25  4  0
 25 26  4  0
 26 27  4  0
 27 28  1  0
 28 29  1  0
 29 30  1  0
 30 31  1  0
 31 32  1  0
 32 33  2  0
 32 34  1  0
 34 35  1  0
 35 29  1  0
  2 23  4  0
  2 27  4  0
M  CHG  1  29   1
M  END
$$$$

     RDKit          3D

 35 40  0  0  0  0  0  0  0  0999 V2000
   -7.6410    4.9930    6.8080 C   0  0  0  0  0  0  0  0  0  1  0  0
   -7.7310    4.0530    5.7140 C   0  0  0  0  0  0  0  0  0  2  0  0
   -6.4520    5.6300    6.8680 N   0  0  0  0  0  0  0  0  0  0  0  0
   -6.2260    6.5240    7.8670 N   0  0  0  0  0  0  0  0  0  0  0  0
   -7.1930    6.7500    8.7820 C   0  0  0  0  0  0  0  0  0  0  0  0
   -8.4240    6.1170    8.7580 C   0  0  0  0  0  0  0  0  0  0  0  0
   -9.3950    6.3570    9.7450 N   0  0  0  0  0  0  0  0  0  0  0  0
  -10.5620    5.6840    9.7600 C   0  0  0  0  0  0  0  0  0  0  0  0
  -11.5770    5.6820   10.5960 N   0  0  0  0  0  0  0  0  0  0  0  0
  -12.4690    4.7490   10.1080 N   0  0  0  0  0  0  0  0  0  0  0  0
  -12.0160    4.1880    8.9920 N   0  0  0  0  0  0  0  0  0  0  0  0
  -10.8400    4.7900    8.7610 N   0  0  0  0  0  0  0  0  0  0  0  0
   -9.9950    4.4790    7.6090 C   0  0  0  0  0  0  0  0  0  0  0  0
   -8.6630    5.2070    7.7200 C   0  0  0  0  0  0  0  0  0  0  0  0
  -10.7490    4.8610    6.3730 C   0  0  0  0  0  0  0  0  0  0  0  0
  -11.0350    6.2020    6.1170 C   0  0  0  0  0  0  0  0  0  0  0  0
  -11.7370    6.5580    4.9650 C   0  0  0  0  0  0  0  0  0  0  0  0
  -12.1550    5.5730    4.0710 C   0  0  0  0  0  0  0  0  0  0  0  0
  -11.8700    4.2310    4.3270 C   0  0  0  0  0  0  0  0  0  0  0  0
  -11.1660    3.8760    5.4790 C   0  0  0  0  0  0  0  0  0  0  0  0
  -12.0160    7.8660    4.7150 O   0  0  0  0  0  0  0  0  0  0  0  0
   -6.8990    7.6510    9.7710 O   0  0  0  0  0  0  0  0  0  0  0  0
   -7.0070    2.8366    5.7103 C   0  0  0  0  0  0  0  0  0  0  0  0
   -7.1356    1.8762    4.7063 C   0  0  0  0  0  0  0  0  0  0  0  0
   -8.0415    2.0712    3.6650 C   0  0  0  0  0  0  0  0  0  0  0  0
   -8.8182    3.2302    3.6198 C   0  0  0  0  0  0  0  0  0  0  0  0
   -8.7056    4.2101    4.6232 C   0  0  0  0  0  0  0  0  0  0  0  0
   -9.5156    5.4888    4.4893 C   0  0  0  0  0  0  0  0  0  0  0  0
   -8.6864    6.6275    4.0249 N   0  0  0  0  0  0  0  0  0  0  0  0
   -8.1574    6.3861    2.6508 C   0  0  0  0  0  0  0  0  0  0  0  0
   -7.8036    7.6720    1.8664 C   0  0  0  0  0  0  0  0  0  0  0  0
   -7.5870    8.8457    2.7760 C   0  0  0  0  0  0  0  0  0  0  0  0
   -6.6344    9.5904    2.6048 O   0  0  0  0  0  0  0  0  0  0  0  0
   -8.5434    9.0969    3.9041 C   0  0  0  0  0  0  0  0  0  0  0  0
   -9.4649    7.8851    4.1019 C   0  0  0  0  0  0  0  0  0  0  0  0
  1  3  4  0
  1 14  4  0
  1  2  1  0
  3  4  4  0
  4  5  4  0
  5  6  4  0
  5 22  1  0
  6  7  1  0
  6 14  4  0
  7  8  1  0
  8  9  4  0
  8 12  4  0
  9 10  4  0
 10 11  4  0
 11 12  4  0
 12 13  1  0
 13 14  1  0
 13 15  1  6
 15 16  4  0
 15 20  4  0
 16 17  4  0
 17 18  4  0
 17 21  1  0
 18 19  4  0
 19 20  4  0
 23 24  4  0
 24 25  4  0
 25 26  4  0
 26 27  4  0
 27 28  1  0
 28 29  1  0
 29 30  1  0
 30 31  1  0
 31 32  1  0
 32 33  2  0
 32 34  1  0
 34 35  1  0
 35 29  1  0
  2 23  4  0
  2 27  4  0
M  CHG  1  29   1
M  END
$$$$

     RDKit          3D

 39 45  0  0  0  0  0  0  0  0999 V2000
   -7.6410    4.9930    6.8080 C   0  0  0  0  0  0  0  0  0  1  0  0
   -7.7310    4.0530    5.7140 C   0  0  0  0  0  0  0  0  0  2  0  0
   -6.4520    5.6300    6.8680 N   0  0  0  0  0  0  0  0  0  0  0  0
   -6.2260    6.5240    7.8670 N   0  0  0  0  0  0  0  0  0  0  0  0
   -7.1930    6.7500    8.7820 C   0  0  0  0  0  0  0  0  0  0  0  0
   -8.4240    6.1170    8.7580 C   0  0  0  0  0  0  0  0  0  0  0  0
   -9.3950    6.3570    9.7450 N   0  0  0  0  0  0  0  0  0  0  0  0
  -10.5620    5.6840    9.7600 C   0  0  0  0  0  0  0  0  0  0  0  0
  -11.5770    5.6820   10.5960 N   0  0  0  0  0  0  0  0  0  0  0  0
  -12.4690    4.7490   10.1080 N   0  0  0  0  0  0  0  0  0  0  0  0
  -12.0160    4.1880    8.9920 N   0  0  0  0  0  0  0  0  0  0  0  0
  -10.8400    4.7900    8.7610 N   0  0  0  0  0  0  0  0  0  0  0  0
   -9.9950    4.4790    7.6090 C   0  0  0  0  0  0  0  0  0  0  0  0
   -8.6630    5.2070    7.7200 C   0  0  0  0  0  0  0  0  0  0  0  0
  -10.7490    4.8610    6.3730 C   0  0  0  0  0  0  0  0  0  0  0  0
  -11.0350    6.2020    6.1170 C   0  0  0  0  0  0  0  0  0  0  0  0
  -11.7370    6.5580    4.9650 C   0  0  0  0  0  0  0  0  0  0  0  0
  -12.1550    5.5730    4.0710 C   0  0  0  0  0  0  0  0  0  0  0  0
  -11.8700    4.2310    4.3270 C   0  0  0  0  0  0  0  0  0  0  0  0
  -11.1660    3.8760    5.4790 C   0  0  0  0  0  0  0  0  0  0  0  0
  -12.0160    7.8660    4.7150 O   0  0  0  0  0  0  0  0  0  0  0  0
   -6.8990    7.6510    9.7710 O   0  0  0  0  0  0  0  0  0  0  0  0
   -7.0254    2.8298    5.5877 C   0  0  0  0  0  0  0  0  0  0  0  0
   -5.9268    2.4067    6.5100 C   0  0  0  0  0  0  0  0  0  0  0  0
   -7.5105    1.9490    4.2268 S   0  0  0  0  0  0  0  0  0  0  0  0
   -8.6904    3.0472    3.7725 C   0  0  0  0  0  0  0  0  0  0  0  0
   -9.5066    2.9545    2.6981 N   0  0  0  0  0  0  0  0  0  0  0  0
  -10.4008    3.9546    2.4565 C   0  0  0  0  0  0  0  0  0  0  0  0
  -11.3386    3.8422    1.2916 C   0  0  0  0  0  0  0  0  0  0  0  0
  -12.6995    3.4018    1.7591 C   0  0  0  0  0  0  0  0  0  0  0  0
  -12.8970    2.0884    2.2193 C   0  0  0  0  0  0  0  0  0  0  0  0
  -14.1586    1.6788    2.6617 C   0  0  0  0  0  0  0  0  0  0  0  0
  -15.2306    2.5752    2.6483 C   0  0  0  0  0  0  0  0  0  0  0  0
  -15.0428    3.8829    2.1923 C   0  0  0  0  0  0  0  0  0  0  0  0
  -13.7828    4.2971    1.7487 C   0  0  0  0  0  0  0  0  0  0  0  0
  -10.4684    5.0351    3.2971 N   0  0  0  0  0  0  0  0  0  0  0  0
   -9.6460    5.1447    4.3821 C   0  0  0  0  0  0  0  0  0  0  0  0
   -9.7129    6.1652    5.1182 O   0  0  0  0  0  0  0  0  0  0  0  0
   -8.7318    4.1155    4.6467 C   0  0  0  0  0  0  0  0  0  0  0  0
  1  3  4  0
  1 14  4  0
  1  2  1  0
  3  4  4  0
  4  5  4  0
  5  6  4  0
  5 22  1  0
  6  7  1  0
  6 14  4  0
  7  8  1  0
  8  9  4  0
  8 12  4  0
  9 10  4  0
 10 11  4  0
 11 12  4  0
 12 13  1  0
 13 14  1  0
 13 15  1  6
 15 16  4  0
 15 20  4  0
 16 17  4  0
 17 18  4  0
 17 21  1  0
 18 19  4  0
 19 20  4  0
 23 24  1  0
 23 25  4  0
 25 26  4  0
 26 27  4  0
 27 28  4  0
 28 29  1  0
 29 30  1  0
 30 31  4  0
 31 32  4  0
 32 33  4  0
 33 34  4  0
 34 35  4  0
 28 36  4  0
 36 37  4  0
 37 38  2  0
 37 39  4  0
 39 26  4  0
 35 30  4  0
  2 23  4  0
  2 39  4  0
M  END
$$$$

     RDKit          3D

 39 45  0  0  0  0  0  0  0  0999 V2000
   -7.6410    4.9930    6.8080 C   0  0  0  0  0  0  0  0  0  1  0  0
   -7.7310    4.0530    5.7140 C   0  0  0  0  0  0  0  0  0  2  0  0
   -6.4520    5.6300    6.8680 N   0  0  0  0  0  0  0  0  0  0  0  0
   -6.2260    6.5240    7.8670 N   0  0  0  0  0  0  0  0  0  0  0  0
   -7.1930    6.7500    8.7820 C   0  0  0  0  0  0  0  0  0  0  0  0
   -8.4240    6.1170    8.7580 C   0  0  0  0  0  0  0  0  0  0  0  0
   -9.3950    6.3570    9.7450 N   0  0  0  0  0  0  0  0  0  0  0  0
  -10.5620    5.6840    9.7600 C   0  0  0  0  0  0  0  0  0  0  0  0
  -11.5770    5.6820   10.5960 N   0  0  0  0  0  0  0  0  0  0  0  0
  -12.4690    4.7490   10.1080 N   0  0  0  0  0  0  0  0  0  0  0  0
  -12.0160    4.1880    8.9920 N   0  0  0  0  0  0  0  0  0  0  0  0
  -10.8400    4.7900    8.7610 N   0  0  0  0  0  0  0  0  0  0  0  0
   -9.9950    4.4790    7.6090 C   0  0  0  0  0  0  0  0  0  0  0  0
   -8.6630    5.2070    7.7200 C   0  0  0  0  0  0  0  0  0  0  0  0
  -10.7490    4.8610    6.3730 C   0  0  0  0  0  0  0  0  0  0  0  0
  -11.0350    6.2020    6.1170 C   0  0  0  0  0  0  0  0  0  0  0  0
  -11.7370    6.5580    4.9650 C   0  0  0  0  0  0  0  0  0  0  0  0
  -12.1550    5.5730    4.0710 C   0  0  0  0  0  0  0  0  0  0  0  0
  -11.8700    4.2310    4.3270 C   0  0  0  0  0  0  0  0  0  0  0  0
  -11.1660    3.8760    5.4790 C   0  0  0  0  0  0  0  0  0  0  0  0
  -12.0160    7.8660    4.7150 O   0  0  0  0  0  0  0  0  0  0  0  0
   -6.8990    7.6510    9.7710 O   0  0  0  0  0  0  0  0  0  0  0  0
   -8.6864    4.1872    4.6280 C   0  0  0  0  0  0  0  0  0  0  0  0
   -9.6110    5.3486    4.4462 C   0  0  0  0  0  0  0  0  0  0  0  0
   -8.5685    2.8894    3.5483 S   0  0  0  0  0  0  0  0  0  0  0  0
   -7.3786    2.0986    4.4222 C   0  0  0  0  0  0  0  0  0  0  0  0
   -6.7940    0.9207    4.1056 N   0  0  0  0  0  0  0  0  0  0  0  0
   -5.8514    0.4024    4.9428 C   0  0  0  0  0  0  0  0  0  0  0  0
   -5.1677   -0.8826    4.5813 C   0  0  0  0  0  0  0  0  0  0  0  0
   -3.7946   -0.6045    4.0311 C   0  0  0  0  0  0  0  0  0  0  0  0
   -3.6485   -0.0149    2.7634 C   0  0  0  0  0  0  0  0  0  0  0  0
   -2.3744    0.2552    2.2545 C   0  0  0  0  0  0  0  0  0  0  0  0
   -1.2389   -0.0608    3.0056 C   0  0  0  0  0  0  0  0  0  0  0  0
   -1.3755   -0.6481    4.2666 C   0  0  0  0  0  0  0  0  0  0  0  0
   -2.6477   -0.9199    4.7798 C   0  0  0  0  0  0  0  0  0  0  0  0
   -5.5038    1.0722    6.0869 N   0  0  0  0  0  0  0  0  0  0  0  0
   -6.0886    2.2605    6.4210 C   0  0  0  0  0  0  0  0  0  0  0  0
   -5.7675    2.8373    7.4941 O   0  0  0  0  0  0  0  0  0  0  0  0
   -7.0498    2.8084    5.5601 C   0  0  0  0  0  0  0  0  0  0  0  0
  1  3  4  0
  1 14  4  0
  1  2  1  0
  3  4  4  0
  4  5  4  0
  5  6  4  0
  5 22  1  0
  6  7  1  0
  6 14  4  0
  7  8  1  0
  8  9  4  0
  8 12  4  0
  9 10  4  0
 10 11  4  0
 11 12  4  0
 12 13  1  0
 13 14  1  0
 13 15  1  6
 15 16  4  0
 15 20  4  0
 16 17  4  0
 17 18  4  0
 17 21  1  0
 18 19  4  0
 19 20  4  0
 23 24  1  0
 23 25  4  0
 25 26  4  0
 26 27  4  0
 27 28  4  0
 28 29  1  0
 29 30  1  0
 30 31  4  0
 31 32  4  0
 32 33  4  0
 33 34  4  0
 34 35  4  0
 28 36  4  0
 36 37  4  0
 37 38  2  0
 37 39  4  0
 39 26  4  0
 35 30  4  0
  2 23  4  0
  2 39  4  0
M  END
$$$$

     RDKit          3D

 39 45  0  0  0  0  0  0  0  0999 V2000
   -7.6410    4.9930    6.8080 C   0  0  0  0  0  0  0  0  0  1  0  0
   -7.7310    4.0530    5.7140 C   0  0  0  0  0  0  0  0  0  2  0  0
   -6.4520    5.6300    6.8680 N   0  0  0  0  0  0  0  0  0  0  0  0
   -6.2260    6.5240    7.8670 N   0  0  0  0  0  0  0  0  0  0  0  0
   -7.1930    6.7500    8.7820 C   0  0  0  0  0  0  0  0  0  0  0  0
   -8.4240    6.1170    8.7580 C   0  0  0  0  0  0  0  0  0  0  0  0
   -9.3950    6.3570    9.7450 N   0  0  0  0  0  0  0  0  0  0  0  0
  -10.5620    5.6840    9.7600 C   0  0  0  0  0  0  0  0  0  0  0  0
  -11.5770    5.6820   10.5960 N   0  0  0  0  0  0  0  0  0  0  0  0
  -12.4690    4.7490   10.1080 N   0  0  0  0  0  0  0  0  0  0  0  0
  -12.0160    4.1880    8.9920 N   0  0  0  0  0  0  0  0  0  0  0  0
  -10.8400    4.7900    8.7610 N   0  0  0  0  0  0  0  0  0  0  0  0
   -9.9950    4.4790    7.6090 C   0  0  0  0  0  0  0  0  0  0  0  0
   -8.6630    5.2070    7.7200 C   0  0  0  0  0  0  0  0  0  0  0  0
  -10.7490    4.8610    6.3730 C   0  0  0  0  0  0  0  0  0  0  0  0
  -11.0350    6.2020    6.1170 C   0  0  0  0  0  0  0  0  0  0  0  0
  -11.7370    6.5580    4.9650 C   0  0  0  0  0  0  0  0  0  0  0  0
  -12.1550    5.5730    4.0710 C   0  0  0  0  0  0  0  0  0  0  0  0
  -11.8700    4.2310    4.3270 C   0  0  0  0  0  0  0  0  0  0  0  0
  -11.1660    3.8760    5.4790 C   0  0  0  0  0  0  0  0  0  0  0  0
  -12.0160    7.8660    4.7150 O   0  0  0  0  0  0  0  0  0  0  0  0
   -6.8990    7.6510    9.7710 O   0  0  0  0  0  0  0  0  0  0  0  0
   -8.7010    4.1783    4.6382 C   0  0  0  0  0  0  0  0  0  0  0  0
   -9.6520    5.3206    4.4754 C   0  0  0  0  0  0  0  0  0  0  0  0
   -8.5948    2.8740    3.5660 S   0  0  0  0  0  0  0  0  0  0  0  0
   -7.3842    2.0966    4.4225 C   0  0  0  0  0  0  0  0  0  0  0  0
   -6.7980    0.9200    4.1028 N   0  0  0  0  0  0  0  0  0  0  0  0
   -5.8362    0.4119    4.9242 C   0  0  0  0  0  0  0  0  0  0  0  0
   -5.1609   -0.8765    4.5545 C   0  0  0  0  0  0  0  0  0  0  0  0
   -4.1833   -0.6512    3.4318 C   0  0  0  0  0  0  0  0  0  0  0  0
   -3.0095    0.0899    3.6539 C   0  0  0  0  0  0  0  0  0  0  0  0
   -2.1066    0.3103    2.6079 C   0  0  0  0  0  0  0  0  0  0  0  0
   -2.3673   -0.2082    1.3357 C   0  0  0  0  0  0  0  0  0  0  0  0
   -3.5293   -0.9509    1.1083 C   0  0  0  0  0  0  0  0  0  0  0  0
   -4.4348   -1.1736    2.1513 C   0  0  0  0  0  0  0  0  0  0  0  0
   -5.4686    1.0934    6.0552 N   0  0  0  0  0  0  0  0  0  0  0  0
   -6.0597    2.2770    6.3963 C   0  0  0  0  0  0  0  0  0  0  0  0
   -5.7232    2.8608    7.4610 O   0  0  0  0  0  0  0  0  0  0  0  0
   -7.0420    2.8132    5.5520 C   0  0  0  0  0  0  0  0  0  0  0  0
  1  3  4  0
  1 14  4  0
  1  2  1  0
  3  4  4  0
  4  5  4  0
  5  6  4  0
  5 22  1  0
  6  7  1  0
  6 14  4  0
  7  8  1  0
  8  9  4  0
  8 12  4  0
  9 10  4  0
 10 11  4  0
 11 12  4  0
 12 13  1  0
 13 14  1  0
 13 15  1  6
 15 16  4  0
 15 20  4  0
 16 17  4  0
 17 18  4  0
 17 21  1  0
 18 19  4  0
 19 20  4  0
 23 24  1  0
 23 25  4  0
 25 26  4  0
 26 27  4  0
 27 28  4  0
 28 29  1  0
 29 30  1  0
 30 31  4  0
 31 32  4  0
 32 33  4  0
 33 34  4  0
 34 35  4  0
 28 36  4  0
 36 37  4  0
 37 38  2  0
 37 39  4  0
 39 26  4  0
 35 30  4  0
  2 23  4  0
  2 39  4  0
M  END
$$$$

     RDKit          3D

 39 45  0  0  0  0  0  0  0  0999 V2000
   -7.6410    4.9930    6.8080 C   0  0  0  0  0  0  0  0  0  1  0  0
   -7.7310    4.0530    5.7140 C   0  0  0  0  0  0  0  0  0  2  0  0
   -6.4520    5.6300    6.8680 N   0  0  0  0  0  0  0  0  0  0  0  0
   -6.2260    6.5240    7.8670 N   0  0  0  0  0  0  0  0  0  0  0  0
   -7.1930    6.7500    8.7820 C   0  0  0  0  0  0  0  0  0  0  0  0
   -8.4240    6.1170    8.7580 C   0  0  0  0  0  0  0  0  0  0  0  0
   -9.3950    6.3570    9.7450 N   0  0  0  0  0  0  0  0  0  0  0  0
  -10.5620    5.6840    9.7600 C   0  0  0  0  0  0  0  0  0  0  0  0
  -11.5770    5.6820   10.5960 N   0  0  0  0  0  0  0  0  0  0  0  0
  -12.4690    4.7490   10.1080 N   0  0  0  0  0  0  0  0  0  0  0  0
  -12.0160    4.1880    8.9920 N   0  0  0  0  0  0  0  0  0  0  0  0
  -10.8400    4.7900    8.7610 N   0  0  0  0  0  0  0  0  0  0  0  0
   -9.9950    4.4790    7.6090 C   0  0  0  0  0  0  0  0  0  0  0  0
   -8.6630    5.2070    7.7200 C   0  0  0  0  0  0  0  0  0  0  0  0
  -10.7490    4.8610    6.3730 C   0  0  0  0  0  0  0  0  0  0  0  0
  -11.0350    6.2020    6.1170 C   0  0  0  0  0  0  0  0  0  0  0  0
  -11.7370    6.5580    4.9650 C   0  0  0  0  0  0  0  0  0  0  0  0
  -12.1550    5.5730    4.0710 C   0  0  0  0  0  0  0  0  0  0  0  0
  -11.8700    4.2310    4.3270 C   0  0  0  0  0  0  0  0  0  0  0  0
  -11.1660    3.8760    5.4790 C   0  0  0  0  0  0  0  0  0  0  0  0
  -12.0160    7.8660    4.7150 O   0  0  0  0  0  0  0  0  0  0  0  0
   -6.8990    7.6510    9.7710 O   0  0  0  0  0  0  0  0  0  0  0  0
   -7.0354    2.8229    5.5931 C   0  0  0  0  0  0  0  0  0  0  0  0
   -5.9350    2.3989    6.5131 C   0  0  0  0  0  0  0  0  0  0  0  0
   -7.5257    1.9414    4.2341 S   0  0  0  0  0  0  0  0  0  0  0  0
   -8.6994    3.0456    3.7766 C   0  0  0  0  0  0  0  0  0  0  0  0
   -9.5151    2.9572    2.7009 N   0  0  0  0  0  0  0  0  0  0  0  0
  -10.4081    3.9592    2.4614 C   0  0  0  0  0  0  0  0  0  0  0  0
  -11.2912    3.8887    1.2521 C   0  0  0  0  0  0  0  0  0  0  0  0
  -10.6439    4.6034    0.0989 C   0  0  0  0  0  0  0  0  0  0  0  0
  -11.0341    5.9130   -0.2373 C   0  0  0  0  0  0  0  0  0  0  0  0
  -10.4173    6.5775   -1.3015 C   0  0  0  0  0  0  0  0  0  0  0  0
   -9.4075    5.9428   -2.0345 C   0  0  0  0  0  0  0  0  0  0  0  0
   -9.0116    4.6423   -1.7041 C   0  0  0  0  0  0  0  0  0  0  0  0
   -9.6242    3.9743   -0.6397 C   0  0  0  0  0  0  0  0  0  0  0  0
  -10.4490    5.0557    3.2838 N   0  0  0  0  0  0  0  0  0  0  0  0
   -9.6283    5.1601    4.3708 C   0  0  0  0  0  0  0  0  0  0  0  0
   -9.6762    6.1909    5.0947 O   0  0  0  0  0  0  0  0  0  0  0  0
   -8.7308    4.1188    4.6457 C   0  0  0  0  0  0  0  0  0  0  0  0
  1  3  4  0
  1 14  4  0
  1  2  1  0
  3  4  4  0
  4  5  4  0
  5  6  4  0
  5 22  1  0
  6  7  1  0
  6 14  4  0
  7  8  1  0
  8  9  4  0
  8 12  4  0
  9 10  4  0
 10 11  4  0
 11 12  4  0
 12 13  1  0
 13 14  1  0
 13 15  1  6
 15 16  4  0
 15 20  4  0
 16 17  4  0
 17 18  4  0
 17 21  1  0
 18 19  4  0
 19 20  4  0
 23 24  1  0
 23 25  4  0
 25 26  4  0
 26 27  4  0
 27 28  4  0
 28 29  1  0
 29 30  1  0
 30 31  4  0
 31 32  4  0
 32 33  4  0
 33 34  4  0
 34 35  4  0
 28 36  4  0
 36 37  4  0
 37 38  2  0
 37 39  4  0
 39 26  4  0
 35 30  4  0
  2 23  4  0
  2 39  4  0
M  END
$$$$

     RDKit          3D

 39 45  0  0  0  0  0  0  0  0999 V2000
   -7.6410    4.9930    6.8080 C   0  0  0  0  0  0  0  0  0  1  0  0
   -7.7310    4.0530    5.7140 C   0  0  0  0  0  0  0  0  0  2  0  0
   -6.4520    5.6300    6.8680 N   0  0  0  0  0  0  0  0  0  0  0  0
   -6.2260    6.5240    7.8670 N   0  0  0  0  0  0  0  0  0  0  0  0
   -7.1930    6.7500    8.7820 C   0  0  0  0  0  0  0  0  0  0  0  0
   -8.4240    6.1170    8.7580 C   0  0  0  0  0  0  0  0  0  0  0  0
   -9.3950    6.3570    9.7450 N   0  0  0  0  0  0  0  0  0  0  0  0
  -10.5620    5.6840    9.7600 C   0  0  0  0  0  0  0  0  0  0  0  0
  -11.5770    5.6820   10.5960 N   0  0  0  0  0  0  0  0  0  0  0  0
  -12.4690    4.7490   10.1080 N   0  0  0  0  0  0  0  0  0  0  0  0
  -12.0160    4.1880    8.9920 N   0  0  0  0  0  0  0  0  0  0  0  0
  -10.8400    4.7900    8.7610 N   0  0  0  0  0  0  0  0  0  0  0  0
   -9.9950    4.4790    7.6090 C   0  0  0  0  0  0  0  0  0  0  0  0
   -8.6630    5.2070    7.7200 C   0  0  0  0  0  0  0  0  0  0  0  0
  -10.7490    4.8610    6.3730 C   0  0  0  0  0  0  0  0  0  0  0  0
  -11.0350    6.2020    6.1170 C   0  0  0  0  0  0  0  0  0  0  0  0
  -11.7370    6.5580    4.9650 C   0  0  0  0  0  0  0  0  0  0  0  0
  -12.1550    5.5730    4.0710 C   0  0  0  0  0  0  0  0  0  0  0  0
  -11.8700    4.2310    4.3270 C   0  0  0  0  0  0  0  0  0  0  0  0
  -11.1660    3.8760    5.4790 C   0  0  0  0  0  0  0  0  0  0  0  0
  -12.0160    7.8660    4.7150 O   0  0  0  0  0  0  0  0  0  0  0  0
   -6.8990    7.6510    9.7710 O   0  0  0  0  0  0  0  0  0  0  0  0
   -8.7088    4.1799    4.6416 C   0  0  0  0  0  0  0  0  0  0  0  0
   -9.6446    5.3366    4.4730 C   0  0  0  0  0  0  0  0  0  0  0  0
   -8.6527    2.8501    3.5972 S   0  0  0  0  0  0  0  0  0  0  0  0
   -7.4534    2.0579    4.4607 C   0  0  0  0  0  0  0  0  0  0  0  0
   -6.9193    0.8492    4.1721 N   0  0  0  0  0  0  0  0  0  0  0  0
   -5.9679    0.3276    4.9989 C   0  0  0  0  0  0  0  0  0  0  0  0
   -5.3824   -1.0221    4.6808 C   0  0  0  0  0  0  0  0  0  0  0  0
   -5.4088   -1.9442    5.8776 C   0  0  0  0  0  0  0  0  0  0  0  0
   -6.6054   -2.1602    6.5861 C   0  0  0  0  0  0  0  0  0  0  0  0
   -6.6234   -3.0158    7.6941 C   0  0  0  0  0  0  0  0  0  0  0  0
   -5.4579   -3.6870    8.0830 C   0  0  0  0  0  0  0  0  0  0  0  0
   -4.2692   -3.4960    7.3732 C   0  0  0  0  0  0  0  0  0  0  0  0
   -4.2416   -2.6259    6.2766 C   0  0  0  0  0  0  0  0  0  0  0  0
   -5.5543    1.0320    6.1025 N   0  0  0  0  0  0  0  0  0  0  0  0
   -6.0993    2.2450    6.4171 C   0  0  0  0  0  0  0  0  0  0  0  0
   -5.7253    2.8478    7.4594 O   0  0  0  0  0  0  0  0  0  0  0  0
   -7.0753    2.7910    5.5697 C   0  0  0  0  0  0  0  0  0  0  0  0
  1  3  4  0
  1 14  4  0
  1  2  1  0
  3  4  4  0
  4  5  4  0
  5  6  4  0
  5 22  1  0
  6  7  1  0
  6 14  4  0
  7  8  1  0
  8  9  4  0
  8 12  4  0
  9 10  4  0
 10 11  4  0
 11 12  4  0
 12 13  1  0
 13 14  1  0
 13 15  1  6
 15 16  4  0
 15 20  4  0
 16 17  4  0
 17 18  4  0
 17 21  1  0
 18 19  4  0
 19 20  4  0
 23 24  1  0
 23 25  4  0
 25 26  4  0
 26 27  4  0
 27 28  4  0
 28 29  1  0
 29 30  1  0
 30 31  4  0
 31 32  4  0
 32 33  4  0
 33 34  4  0
 34 35  4  0
 28 36  4  0
 36 37  4  0
 37 38  2  0
 37 39  4  0
 39 26  4  0
 35 30  4  0
  2 23  4  0
  2 39  4  0
M  END
$$$$

     RDKit          3D

 39 43  0  0  0  0  0  0  0  0999 V2000
   -7.6410    4.9930    6.8080 C   0  0  0  0  0  0  0  0  0  1  0  0
   -7.7310    4.0530    5.7140 C   0  0  0  0  0  0  0  0  0  2  0  0
   -6.4520    5.6300    6.8680 N   0  0  0  0  0  0  0  0  0  0  0  0
   -6.2260    6.5240    7.8670 N   0  0  0  0  0  0  0  0  0  0  0  0
   -7.1930    6.7500    8.7820 C   0  0  0  0  0  0  0  0  0  0  0  0
   -8.4240    6.1170    8.7580 C   0  0  0  0  0  0  0  0  0  0  0  0
   -9.3950    6.3570    9.7450 N   0  0  0  0  0  0  0  0  0  0  0  0
  -10.5620    5.6840    9.7600 C   0  0  0  0  0  0  0  0  0  0  0  0
  -11.5770    5.6820   10.5960 N   0  0  0  0  0  0  0  0  0  0  0  0
  -12.4690    4.7490   10.1080 N   0  0  0  0  0  0  0  0  0  0  0  0
  -12.0160    4.1880    8.9920 N   0  0  0  0  0  0  0  0  0  0  0  0
  -10.8400    4.7900    8.7610 N   0  0  0  0  0  0  0  0  0  0  0  0
   -9.9950    4.4790    7.6090 C   0  0  0  0  0  0  0  0  0  0  0  0
   -8.6630    5.2070    7.7200 C   0  0  0  0  0  0  0  0  0  0  0  0
  -10.7490    4.8610    6.3730 C   0  0  0  0  0  0  0  0  0  0  0  0
  -11.0350    6.2020    6.1170 C   0  0  0  0  0  0  0  0  0  0  0  0
  -11.7370    6.5580    4.9650 C   0  0  0  0  0  0  0  0  0  0  0  0
  -12.1550    5.5730    4.0710 C   0  0  0  0  0  0  0  0  0  0  0  0
  -11.8700    4.2310    4.3270 C   0  0  0  0  0  0  0  0  0  0  0  0
  -11.1660    3.8760    5.4790 C   0  0  0  0  0  0  0  0  0  0  0  0
  -12.0160    7.8660    4.7150 O   0  0  0  0  0  0  0  0  0  0  0  0
   -6.8990    7.6510    9.7710 O   0  0  0  0  0  0  0  0  0  0  0  0
   -6.8646    3.0510    5.4328 N   0  0  0  0  0  0  0  0  0  0  0  0
   -7.2869    2.4109    4.3562 N   0  0  0  0  0  0  0  0  0  0  0  0
   -8.4372    2.9813    3.9617 C   0  0  0  0  0  0  0  0  0  0  0  0
   -9.2711    2.5033    2.6371 S   0  0  0  0  0  0  0  0  0  0  0  0
   -8.7899    3.9968    4.7831 N   0  0  0  0  0  0  0  0  0  0  0  0
   -9.9083    4.9395    4.6321 C   0  0  0  0  0  0  0  0  0  0  0  0
   -9.4182    6.3403    4.2391 C   0  0  0  0  0  0  0  0  0  0  0  0
   -8.6198    6.3117    2.9679 C   0  0  0  0  0  0  0  0  0  0  0  0
   -7.3954    6.6007    3.0027 O   0  0  0  0  0  0  0  0  0  0  0  0
   -9.2525    5.9856    1.7223 N   0  0  0  0  0  0  0  0  0  0  0  0
   -8.4729    5.8443    0.4924 C   0  0  0  0  0  0  0  0  0  0  0  0
   -9.3605    5.5096   -0.7146 C   0  0  0  0  0  0  0  0  0  0  0  0
   -9.9893    4.1204   -0.6186 C   0  0  0  0  0  0  0  0  0  0  0  0
  -10.7317    3.8765   -1.7993 O   0  0  0  0  0  0  0  0  0  0  0  0
  -11.9078    3.1056   -1.5933 C   0  0  0  0  0  0  0  0  0  0  0  0
  -13.0206    3.9151   -0.9147 C   0  0  0  0  0  0  0  0  0  0  0  0
  -11.6591    1.7567   -0.8988 C   0  0  0  0  0  0  0  0  0  0  0  0
  1  3  4  0
  1 14  4  0
  1  2  1  0
  3  4  4  0
  4  5  4  0
  5  6  4  0
  5 22  1  0
  6  7  1  0
  6 14  4  0
  7  8  1  0
  8  9  4  0
  8 12  4  0
  9 10  4  0
 10 11  4  0
 11 12  4  0
 12 13  1  0
 13 14  1  0
 13 15  1  6
 15 16  4  0
 15 20  4  0
 16 17  4  0
 17 18  4  0
 17 21  1  0
 18 19  4  0
 19 20  4  0
 23 24  4  0
 24 25  4  0
 25 26  2  0
 25 27  4  0
 27 28  1  0
 28 29  1  0
 29 30  1  0
 30 31  2  0
 30 32  1  0
 32 33  1  0
 33 34  1  0
 34 35  1  0
 35 36  1  0
 36 37  1  0
 37 38  1  0
 37 39  1  0
  2 23  4  0
  2 27  4  0
M  END
$$$$

     RDKit          3D

 35 40  0  0  0  0  0  0  0  0999 V2000
   -7.6410    4.9930    6.8080 C   0  0  0  0  0  0  0  0  0  1  0  0
   -7.7310    4.0530    5.7140 C   0  0  0  0  0  0  0  0  0  2  0  0
   -6.4520    5.6300    6.8680 N   0  0  0  0  0  0  0  0  0  0  0  0
   -6.2260    6.5240    7.8670 N   0  0  0  0  0  0  0  0  0  0  0  0
   -7.1930    6.7500    8.7820 C   0  0  0  0  0  0  0  0  0  0  0  0
   -8.4240    6.1170    8.7580 C   0  0  0  0  0  0  0  0  0  0  0  0
   -9.3950    6.3570    9.7450 N   0  0  0  0  0  0  0  0  0  0  0  0
  -10.5620    5.6840    9.7600 C   0  0  0  0  0  0  0  0  0  0  0  0
  -11.5770    5.6820   10.5960 N   0  0  0  0  0  0  0  0  0  0  0  0
  -12.4690    4.7490   10.1080 N   0  0  0  0  0  0  0  0  0  0  0  0
  -12.0160    4.1880    8.9920 N   0  0  0  0  0  0  0  0  0  0  0  0
  -10.8400    4.7900    8.7610 N   0  0  0  0  0  0  0  0  0  0  0  0
   -9.9950    4.4790    7.6090 C   0  0  0  0  0  0  0  0  0  0  0  0
   -8.6630    5.2070    7.7200 C   0  0  0  0  0  0  0  0  0  0  0  0
  -10.7490    4.8610    6.3730 C   0  0  0  0  0  0  0  0  0  0  0  0
  -11.0350    6.2020    6.1170 C   0  0  0  0  0  0  0  0  0  0  0  0
  -11.7370    6.5580    4.9650 C   0  0  0  0  0  0  0  0  0  0  0  0
  -12.1550    5.5730    4.0710 C   0  0  0  0  0  0  0  0  0  0  0  0
  -11.8700    4.2310    4.3270 C   0  0  0  0  0  0  0  0  0  0  0  0
  -11.1660    3.8760    5.4790 C   0  0  0  0  0  0  0  0  0  0  0  0
  -12.0160    7.8660    4.7150 O   0  0  0  0  0  0  0  0  0  0  0  0
   -6.8990    7.6510    9.7710 O   0  0  0  0  0  0  0  0  0  0  0  0
   -6.8375    3.0862    5.3869 N   0  0  0  0  0  0  0  0  0  0  0  0
   -7.3448    2.4504    4.3117 C   0  0  0  0  0  0  0  0  0  0  0  0
   -6.7209    1.4231    3.6044 C   0  0  0  0  0  0  0  0  0  0  0  0
   -5.0149    0.7392    4.1308 Br  0  0  0  0  0  0  0  0  0  0  0  0
   -7.3801    0.9119    2.4756 C   0  0  0  0  0  0  0  0  0  0  0  0
   -8.6349    1.4274    2.0839 C   0  0  0  0  0  0  0  0  0  0  0  0
   -9.3137    0.9166    0.8487 C   0  0  0  0  0  0  0  0  0  0  0  0
   -9.2046    2.4769    2.8275 C   0  0  0  0  0  0  0  0  0  0  0  0
   -8.5387    2.9318    3.9228 N   0  0  0  0  0  0  0  0  0  0  0  0
   -8.8439    3.9169    4.7882 C   0  0  0  0  0  0  0  0  0  0  0  0
   -9.9878    4.8837    4.6218 C   0  0  0  0  0  0  0  0  0  0  0  0
   -9.6002    6.0075    3.6544 C   0  0  0  0  0  0  0  0  0  0  0  0
  -10.7039    6.9508    3.4793 N   0  0  0  0  0  0  0  0  0  0  0  0
  1  3  4  0
  1 14  4  0
  1  2  1  0
  3  4  4  0
  4  5  4  0
  5  6  4  0
  5 22  1  0
  6  7  1  0
  6 14  4  0
  7  8  1  0
  8  9  4  0
  8 12  4  0
  9 10  4  0
 10 11  4  0
 11 12  4  0
 12 13  1  0
 13 14  1  0
 13 15  1  6
 15 16  4  0
 15 20  4  0
 16 17  4  0
 17 18  4  0
 17 21  1  0
 18 19  4  0
 19 20  4  0
 23 24  4  0
 24 25  4  0
 25 26  1  0
 25 27  4  0
 27 28  4  0
 28 29  1  0
 28 30  4  0
 30 31  4  0
 31 32  4  0
 32 33  1  0
 33 34  1  0
 34 35  1  0
 31 24  4  0
  2 23  4  0
  2 32  4  0
M  CHG  1  35   1
M  END
$$$$

     RDKit          3D

 39 44  0  0  0  0  0  0  0  0999 V2000
   -7.6410    4.9930    6.8080 C   0  0  0  0  0  0  0  0  0  1  0  0
   -7.7310    4.0530    5.7140 C   0  0  0  0  0  0  0  0  0  2  0  0
   -6.4520    5.6300    6.8680 N   0  0  0  0  0  0  0  0  0  0  0  0
   -6.2260    6.5240    7.8670 N   0  0  0  0  0  0  0  0  0  0  0  0
   -7.1930    6.7500    8.7820 C   0  0  0  0  0  0  0  0  0  0  0  0
   -8.4240    6.1170    8.7580 C   0  0  0  0  0  0  0  0  0  0  0  0
   -9.3950    6.3570    9.7450 N   0  0  0  0  0  0  0  0  0  0  0  0
  -10.5620    5.6840    9.7600 C   0  0  0  0  0  0  0  0  0  0  0  0
  -11.5770    5.6820   10.5960 N   0  0  0  0  0  0  0  0  0  0  0  0
  -12.4690    4.7490   10.1080 N   0  0  0  0  0  0  0  0  0  0  0  0
  -12.0160    4.1880    8.9920 N   0  0  0  0  0  0  0  0  0  0  0  0
  -10.8400    4.7900    8.7610 N   0  0  0  0  0  0  0  0  0  0  0  0
   -9.9950    4.4790    7.6090 C   0  0  0  0  0  0  0  0  0  0  0  0
   -8.6630    5.2070    7.7200 C   0  0  0  0  0  0  0  0  0  0  0  0
  -10.7490    4.8610    6.3730 C   0  0  0  0  0  0  0  0  0  0  0  0
  -11.0350    6.2020    6.1170 C   0  0  0  0  0  0  0  0  0  0  0  0
  -11.7370    6.5580    4.9650 C   0  0  0  0  0  0  0  0  0  0  0  0
  -12.1550    5.5730    4.0710 C   0  0  0  0  0  0  0  0  0  0  0  0
  -11.8700    4.2310    4.3270 C   0  0  0  0  0  0  0  0  0  0  0  0
  -11.1660    3.8760    5.4790 C   0  0  0  0  0  0  0  0  0  0  0  0
  -12.0160    7.8660    4.7150 O   0  0  0  0  0  0  0  0  0  0  0  0
   -6.8990    7.6510    9.7710 O   0  0  0  0  0  0  0  0  0  0  0  0
   -7.0028    2.8777    5.5363 C   0  0  0  0  0  0  0  0  0  0  0  0
   -7.5506    2.2390    4.4398 C   0  0  0  0  0  0  0  0  0  0  0  0
   -7.1346    0.9055    3.9066 C   0  0  0  0  0  0  0  0  0  0  0  0
   -7.5680    0.7618    2.6010 F   0  0  0  0  0  0  0  0  0  0  0  0
   -7.6913   -0.0932    4.6828 F   0  0  0  0  0  0  0  0  0  0  0  0
   -5.7565    0.7935    3.9378 F   0  0  0  0  0  0  0  0  0  0  0  0
   -8.5988    2.9446    3.9710 N   0  0  0  0  0  0  0  0  0  0  0  0
   -8.7223    4.0296    4.7206 N   0  0  0  0  0  0  0  0  0  0  0  0
   -9.7170    5.0390    4.4724 C   0  0  0  0  0  0  0  0  0  0  0  0
   -9.4147    6.4034    4.6079 C   0  0  0  0  0  0  0  0  0  0  0  0
  -10.3931    7.3720    4.3701 C   0  0  0  0  0  0  0  0  0  0  0  0
  -11.6929    6.9975    3.9862 C   0  0  0  0  0  0  0  0  0  0  0  0
  -12.7204    8.0380    3.7369 C   0  0  0  0  0  0  0  0  0  0  0  0
  -14.1178    7.7403    3.8035 N   0  0  0  0  0  0  0  0  0  0  0  0
  -12.3621    9.2179    3.4741 O   0  0  0  0  0  0  0  0  0  0  0  0
  -11.9827    5.6314    3.8186 C   0  0  0  0  0  0  0  0  0  0  0  0
  -11.0022    4.6639    4.0560 C   0  0  0  0  0  0  0  0  0  0  0  0
  1  3  4  0
  1 14  4  0
  1  2  1  0
  3  4  4  0
  4  5  4  0
  5  6  4  0
  5 22  1  0
  6  7  1  0
  6 14  4  0
  7  8  1  0
  8  9  4  0
  8 12  4  0
  9 10  4  0
 10 11  4  0
 11 12  4  0
 12 13  1  0
 13 14  1  0
 13 15  1  6
 15 16  4  0
 15 20  4  0
 16 17  4  0
 17 18  4  0
 17 21  1  0
 18 19  4  0
 19 20  4  0
 23 24  4  0
 24 25  1  0
 25 26  1  0
 25 27  1  0
 25 28  1  0
 24 29  4  0
 29 30  4  0
 30 31  1  0
 31 32  4  0
 32 33  4  0
 33 34  4  0
 34 35  1  0
 35 36  1  0
 35 37  2  0
 34 38  4  0
 38 39  4  0
 39 31  4  0
  2 23  4  0
  2 30  4  0
M  END
$$$$

     RDKit          3D

 39 44  0  0  0  0  0  0  0  0999 V2000
   -7.6410    4.9930    6.8080 C   0  0  0  0  0  0  0  0  0  1  0  0
   -7.7310    4.0530    5.7140 C   0  0  0  0  0  0  0  0  0  2  0  0
   -6.4520    5.6300    6.8680 N   0  0  0  0  0  0  0  0  0  0  0  0
   -6.2260    6.5240    7.8670 N   0  0  0  0  0  0  0  0  0  0  0  0
   -7.1930    6.7500    8.7820 C   0  0  0  0  0  0  0  0  0  0  0  0
   -8.4240    6.1170    8.7580 C   0  0  0  0  0  0  0  0  0  0  0  0
   -9.3950    6.3570    9.7450 N   0  0  0  0  0  0  0  0  0  0  0  0
  -10.5620    5.6840    9.7600 C   0  0  0  0  0  0  0  0  0  0  0  0
  -11.5770    5.6820   10.5960 N   0  0  0  0  0  0  0  0  0  0  0  0
  -12.4690    4.7490   10.1080 N   0  0  0  0  0  0  0  0  0  0  0  0
  -12.0160    4.1880    8.9920 N   0  0  0  0  0  0  0  0  0  0  0  0
  -10.8400    4.7900    8.7610 N   0  0  0  0  0  0  0  0  0  0  0  0
   -9.9950    4.4790    7.6090 C   0  0  0  0  0  0  0  0  0  0  0  0
   -8.6630    5.2070    7.7200 C   0  0  0  0  0  0  0  0  0  0  0  0
  -10.7490    4.8610    6.3730 C   0  0  0  0  0  0  0  0  0  0  0  0
  -11.0350    6.2020    6.1170 C   0  0  0  0  0  0  0  0  0  0  0  0
  -11.7370    6.5580    4.9650 C   0  0  0  0  0  0  0  0  0  0  0  0
  -12.1550    5.5730    4.0710 C   0  0  0  0  0  0  0  0  0  0  0  0
  -11.8700    4.2310    4.3270 C   0  0  0  0  0  0  0  0  0  0  0  0
  -11.1660    3.8760    5.4790 C   0  0  0  0  0  0  0  0  0  0  0  0
  -12.0160    7.8660    4.7150 O   0  0  0  0  0  0  0  0  0  0  0  0
   -6.8990    7.6510    9.7710 O   0  0  0  0  0  0  0  0  0  0  0  0
   -7.0031    2.8773    5.5371 C   0  0  0  0  0  0  0  0  0  0  0  0
   -7.5509    2.2383    4.4408 C   0  0  0  0  0  0  0  0  0  0  0  0
   -7.1354    0.9044    3.9082 C   0  0  0  0  0  0  0  0  0  0  0  0
   -5.7573    0.7921    3.9395 F   0  0  0  0  0  0  0  0  0  0  0  0
   -7.5689    0.7600    2.6028 F   0  0  0  0  0  0  0  0  0  0  0  0
   -7.6923   -0.0938    4.6851 F   0  0  0  0  0  0  0  0  0  0  0  0
   -8.5988    2.9440    3.9715 N   0  0  0  0  0  0  0  0  0  0  0  0
   -8.7221    4.0295    4.7204 N   0  0  0  0  0  0  0  0  0  0  0  0
   -9.7167    5.0387    4.4713 C   0  0  0  0  0  0  0  0  0  0  0  0
  -11.0040    4.6625    4.0632 C   0  0  0  0  0  0  0  0  0  0  0  0
  -11.9835    5.6302    3.8253 C   0  0  0  0  0  0  0  0  0  0  0  0
  -11.6889    6.9974    3.9706 C   0  0  0  0  0  0  0  0  0  0  0  0
  -12.7422    8.0121    3.7220 C   0  0  0  0  0  0  0  0  0  0  0  0
  -12.4155    9.3656    3.3949 N   0  0  0  0  0  0  0  0  0  0  0  0
  -13.9563    7.6783    3.7854 O   0  0  0  0  0  0  0  0  0  0  0  0
  -10.3933    7.3728    4.3690 C   0  0  0  0  0  0  0  0  0  0  0  0
   -9.4152    6.4034    4.6074 C   0  0  0  0  0  0  0  0  0  0  0  0
  1  3  4  0
  1 14  4  0
  1  2  1  0
  3  4  4  0
  4  5  4  0
  5  6  4  0
  5 22  1  0
  6  7  1  0
  6 14  4  0
  7  8  1  0
  8  9  4  0
  8 12  4  0
  9 10  4  0
 10 11  4  0
 11 12  4  0
 12 13  1  0
 13 14  1  0
 13 15  1  6
 15 16  4  0
 15 20  4  0
 16 17  4  0
 17 18  4  0
 17 21  1  0
 18 19  4  0
 19 20  4  0
 23 24  4  0
 24 25  1  0
 25 26  1  0
 25 27  1  0
 25 28  1  0
 24 29  4  0
 29 30  4  0
 30 31  1  0
 31 32  4  0
 32 33  4  0
 33 34  4  0
 34 35  1  0
 35 36  1  0
 35 37  2  0
 34 38  4  0
 38 39  4  0
 39 31  4  0
  2 23  4  0
  2 30  4  0
M  END
$$$$

     RDKit          3D

 29 33  0  0  0  0  0  0  0  0999 V2000
   -7.6410    4.9930    6.8080 C   0  0  0  0  0  0  0  0  0  1  0  0
   -7.7310    4.0530    5.7140 C   0  0  0  0  0  0  0  0  0  2  0  0
   -6.4520    5.6300    6.8680 N   0  0  0  0  0  0  0  0  0  0  0  0
   -6.2260    6.5240    7.8670 N   0  0  0  0  0  0  0  0  0  0  0  0
   -7.1930    6.7500    8.7820 C   0  0  0  0  0  0  0  0  0  0  0  0
   -8.4240    6.1170    8.7580 C   0  0  0  0  0  0  0  0  0  0  0  0
   -9.3950    6.3570    9.7450 N   0  0  0  0  0  0  0  0  0  0  0  0
  -10.5620    5.6840    9.7600 C   0  0  0  0  0  0  0  0  0  0  0  0
  -11.5770    5.6820   10.5960 N   0  0  0  0  0  0  0  0  0  0  0  0
  -12.4690    4.7490   10.1080 N   0  0  0  0  0  0  0  0  0  0  0  0
  -12.0160    4.1880    8.9920 N   0  0  0  0  0  0  0  0  0  0  0  0
  -10.8400    4.7900    8.7610 N   0  0  0  0  0  0  0  0  0  0  0  0
   -9.9950    4.4790    7.6090 C   0  0  0  0  0  0  0  0  0  0  0  0
   -8.6630    5.2070    7.7200 C   0  0  0  0  0  0  0  0  0  0  0  0
  -10.7490    4.8610    6.3730 C   0  0  0  0  0  0  0  0  0  0  0  0
  -11.0350    6.2020    6.1170 C   0  0  0  0  0  0  0  0  0  0  0  0
  -11.7370    6.5580    4.9650 C   0  0  0  0  0  0  0  0  0  0  0  0
  -12.1550    5.5730    4.0710 C   0  0  0  0  0  0  0  0  0  0  0  0
  -11.8700    4.2310    4.3270 C   0  0  0  0  0  0  0  0  0  0  0  0
  -11.1660    3.8760    5.4790 C   0  0  0  0  0  0  0  0  0  0  0  0
  -12.0160    7.8660    4.7150 O   0  0  0  0  0  0  0  0  0  0  0  0
   -6.8990    7.6510    9.7710 O   0  0  0  0  0  0  0  0  0  0  0  0
   -6.8474    2.9850    5.5200 C   0  0  0  0  0  0  0  0  0  0  0  0
   -7.0390    1.9879    4.5619 C   0  0  0  0  0  0  0  0  0  0  0  0
   -8.1824    1.9955    3.7555 C   0  0  0  0  0  0  0  0  0  0  0  0
   -8.3808    0.9693    2.7795 N   0  0  0  0  0  0  0  0  0  0  0  0
   -9.1254    3.0207    3.9023 C   0  0  0  0  0  0  0  0  0  0  0  0
   -8.9383    4.0361    4.8531 C   0  0  0  0  0  0  0  0  0  0  0  0
   -9.8832    5.1123    4.9147 N   0  0  0  0  0  0  0  0  0  0  0  0
  1  3  4  0
  1 14  4  0
  1  2  1  0
  3  4  4  0
  4  5  4  0
  5  6  4  0
  5 22  1  0
  6  7  1  0
  6 14  4  0
  7  8  1  0
  8  9  4  0
  8 12  4  0
  9 10  4  0
 10 11  4  0
 11 12  4  0
 12 13  1  0
 13 14  1  0
 13 15  1  6
 15 16  4  0
 15 20  4  0
 16 17  4  0
 17 18  4  0
 17 21  1  0
 18 19  4  0
 19 20  4  0
 23 24  4  0
 24 25  4  0
 25 26  1  0
 25 27  4  0
 27 28  4  0
 28 29  1  0
  2 23  4  0
  2 28  4  0
M  END
$$$$

     RDKit          3D

 40 46  0  0  0  0  0  0  0  0999 V2000
   -7.6410    4.9930    6.8080 C   0  0  0  0  0  0  0  0  0  1  0  0
   -7.7310    4.0530    5.7140 C   0  0  0  0  0  0  0  0  0  2  0  0
   -6.4520    5.6300    6.8680 N   0  0  0  0  0  0  0  0  0  0  0  0
   -6.2260    6.5240    7.8670 N   0  0  0  0  0  0  0  0  0  0  0  0
   -7.1930    6.7500    8.7820 C   0  0  0  0  0  0  0  0  0  0  0  0
   -8.4240    6.1170    8.7580 C   0  0  0  0  0  0  0  0  0  0  0  0
   -9.3950    6.3570    9.7450 N   0  0  0  0  0  0  0  0  0  0  0  0
  -10.5620    5.6840    9.7600 C   0  0  0  0  0  0  0  0  0  0  0  0
  -11.5770    5.6820   10.5960 N   0  0  0  0  0  0  0  0  0  0  0  0
  -12.4690    4.7490   10.1080 N   0  0  0  0  0  0  0  0  0  0  0  0
  -12.0160    4.1880    8.9920 N   0  0  0  0  0  0  0  0  0  0  0  0
  -10.8400    4.7900    8.7610 N   0  0  0  0  0  0  0  0  0  0  0  0
   -9.9950    4.4790    7.6090 C   0  0  0  0  0  0  0  0  0  0  0  0
   -8.6630    5.2070    7.7200 C   0  0  0  0  0  0  0  0  0  0  0  0
  -10.7490    4.8610    6.3730 C   0  0  0  0  0  0  0  0  0  0  0  0
  -11.0350    6.2020    6.1170 C   0  0  0  0  0  0  0  0  0  0  0  0
  -11.7370    6.5580    4.9650 C   0  0  0  0  0  0  0  0  0  0  0  0
  -12.1550    5.5730    4.0710 C   0  0  0  0  0  0  0  0  0  0  0  0
  -11.8700    4.2310    4.3270 C   0  0  0  0  0  0  0  0  0  0  0  0
  -11.1660    3.8760    5.4790 C   0  0  0  0  0  0  0  0  0  0  0  0
  -12.0160    7.8660    4.7150 O   0  0  0  0  0  0  0  0  0  0  0  0
   -6.8990    7.6510    9.7710 O   0  0  0  0  0  0  0  0  0  0  0  0
   -6.7593    3.1791    5.3371 N   0  0  0  0  0  0  0  0  0  0  0  0
   -7.0888    2.3681    4.3081 C   0  0  0  0  0  0  0  0  0  0  0  0
   -6.2007    1.4072    3.7243 N   0  0  0  0  0  0  0  0  0  0  0  0
   -4.8769    1.1398    4.2123 C   0  0  0  0  0  0  0  0  0  0  0  0
   -4.4453    1.7072    5.2517 O   0  0  0  0  0  0  0  0  0  0  0  0
   -4.0041    0.1563    3.4957 C   0  0  0  0  0  0  0  0  0  0  0  0
   -4.5237   -1.2369    3.6932 C   0  0  0  0  0  0  0  0  0  0  0  0
   -4.5332   -1.9518    4.8872 C   0  0  0  0  0  0  0  0  0  0  0  0
   -5.0919   -3.1698    4.7043 N   0  0  0  0  0  0  0  0  0  0  0  0
   -5.4378   -3.2293    3.4070 C   0  0  0  0  0  0  0  0  0  0  0  0
   -6.0485   -4.2933    2.7445 C   0  0  0  0  0  0  0  0  0  0  0  0
   -6.3198   -4.1456    1.3726 C   0  0  0  0  0  0  0  0  0  0  0  0
   -5.9799   -2.9506    0.7007 C   0  0  0  0  0  0  0  0  0  0  0  0
   -5.3674   -1.8914    1.3948 C   0  0  0  0  0  0  0  0  0  0  0  0
   -5.1061   -2.0683    2.7547 C   0  0  0  0  0  0  0  0  0  0  0  0
   -8.6551    2.6432    3.7693 S   0  0  0  0  0  0  0  0  0  0  0  0
   -8.9364    3.8590    4.8993 C   0  0  0  0  0  0  0  0  0  0  0  0
  -10.2079    4.6428    4.9813 C   0  0  0  0  0  0  0  0  0  0  0  0
  1  3  4  0
  1 14  4  0
  1  2  1  0
  3  4  4  0
  4  5  4  0
  5  6  4  0
  5 22  1  0
  6  7  1  0
  6 14  4  0
  7  8  1  0
  8  9  4  0
  8 12  4  0
  9 10  4  0
 10 11  4  0
 11 12  4  0
 12 13  1  0
 13 14  1  0
 13 15  1  6
 15 16  4  0
 15 20  4  0
 16 17  4  0
 17 18  4  0
 17 21  1  0
 18 19  4  0
 19 20  4  0
 23 24  4  0
 24 25  1  0
 25 26  1  0
 26 27  2  0
 26 28  1  0
 28 29  1  0
 29 30  4  0
 30 31  4  0
 31 32  4  0
 32 33  4  0
 33 34  4  0
 34 35  4  0
 35 36  4  0
 36 37  4  0
 24 38  4  0
 38 39  4  0
 39 40  1  0
 37 29  4  0
 37 32  4  0
  2 23  4  0
  2 39  4  0
M  END
$$$$

     RDKit          3D

 40 46  0  0  0  0  0  0  0  0999 V2000
   -7.6410    4.9930    6.8080 C   0  0  0  0  0  0  0  0  0  1  0  0
   -7.7310    4.0530    5.7140 C   0  0  0  0  0  0  0  0  0  2  0  0
   -6.4520    5.6300    6.8680 N   0  0  0  0  0  0  0  0  0  0  0  0
   -6.2260    6.5240    7.8670 N   0  0  0  0  0  0  0  0  0  0  0  0
   -7.1930    6.7500    8.7820 C   0  0  0  0  0  0  0  0  0  0  0  0
   -8.4240    6.1170    8.7580 C   0  0  0  0  0  0  0  0  0  0  0  0
   -9.3950    6.3570    9.7450 N   0  0  0  0  0  0  0  0  0  0  0  0
  -10.5620    5.6840    9.7600 C   0  0  0  0  0  0  0  0  0  0  0  0
  -11.5770    5.6820   10.5960 N   0  0  0  0  0  0  0  0  0  0  0  0
  -12.4690    4.7490   10.1080 N   0  0  0  0  0  0  0  0  0  0  0  0
  -12.0160    4.1880    8.9920 N   0  0  0  0  0  0  0  0  0  0  0  0
  -10.8400    4.7900    8.7610 N   0  0  0  0  0  0  0  0  0  0  0  0
   -9.9950    4.4790    7.6090 C   0  0  0  0  0  0  0  0  0  0  0  0
   -8.6630    5.2070    7.7200 C   0  0  0  0  0  0  0  0  0  0  0  0
  -10.7490    4.8610    6.3730 C   0  0  0  0  0  0  0  0  0  0  0  0
  -11.0350    6.2020    6.1170 C   0  0  0  0  0  0  0  0  0  0  0  0
  -11.7370    6.5580    4.9650 C   0  0  0  0  0  0  0  0  0  0  0  0
  -12.1550    5.5730    4.0710 C   0  0  0  0  0  0  0  0  0  0  0  0
  -11.8700    4.2310    4.3270 C   0  0  0  0  0  0  0  0  0  0  0  0
  -11.1660    3.8760    5.4790 C   0  0  0  0  0  0  0  0  0  0  0  0
  -12.0160    7.8660    4.7150 O   0  0  0  0  0  0  0  0  0  0  0  0
   -6.8990    7.6510    9.7710 O   0  0  0  0  0  0  0  0  0  0  0  0
   -6.7677    3.1616    5.3553 N   0  0  0  0  0  0  0  0  0  0  0  0
   -7.0912    2.3450    4.3294 C   0  0  0  0  0  0  0  0  0  0  0  0
   -6.1909    1.3432    3.8345 N   0  0  0  0  0  0  0  0  0  0  0  0
   -6.4236    0.5285    2.6741 C   0  0  0  0  0  0  0  0  0  0  0  0
   -7.3950    0.7580    1.9051 O   0  0  0  0  0  0  0  0  0  0  0  0
   -5.5217   -0.6314    2.3851 C   0  0  0  0  0  0  0  0  0  0  0  0
   -5.9676   -1.8279    3.1688 C   0  0  0  0  0  0  0  0  0  0  0  0
   -6.9992   -2.6988    2.8302 C   0  0  0  0  0  0  0  0  0  0  0  0
   -7.1601   -3.6364    3.7915 N   0  0  0  0  0  0  0  0  0  0  0  0
   -6.2452   -3.3604    4.7369 C   0  0  0  0  0  0  0  0  0  0  0  0
   -6.0368   -4.0436    5.9343 C   0  0  0  0  0  0  0  0  0  0  0  0
   -5.0291   -3.5709    6.7945 C   0  0  0  0  0  0  0  0  0  0  0  0
   -4.2630   -2.4372    6.4440 C   0  0  0  0  0  0  0  0  0  0  0  0
   -4.4961   -1.7661    5.2296 C   0  0  0  0  0  0  0  0  0  0  0  0
   -5.4988   -2.2612    4.3944 C   0  0  0  0  0  0  0  0  0  0  0  0
   -8.6605    2.6291    3.7864 S   0  0  0  0  0  0  0  0  0  0  0  0
   -8.9328    3.8651    4.8953 C   0  0  0  0  0  0  0  0  0  0  0  0
  -10.2012    4.6543    4.9722 C   0  0  0  0  0  0  0  0  0  0  0  0
  1  3  4  0
  1 14  4  0
  1  2  1  0
  3  4  4  0
  4  5  4  0
  5  6  4  0
  5 22  1  0
  6  7  1  0
  6 14  4  0
  7  8  1  0
  8  9  4  0
  8 12  4  0
  9 10  4  0
 10 11  4  0
 11 12  4  0
 12 13  1  0
 13 14  1  0
 13 15  1  6
 15 16  4  0
 15 20  4  0
 16 17  4  0
 17 18  4  0
 17 21  1  0
 18 19  4  0
 19 20  4  0
 23 24  4  0
 24 25  1  0
 25 26  1  0
 26 27  2  0
 26 28  1  0
 28 29  1  0
 29 30  4  0
 30 31  4  0
 31 32  4  0
 32 33  4  0
 33 34  4  0
 34 35  4  0
 35 36  4  0
 36 37  4  0
 24 38  4  0
 38 39  4  0
 39 40  1  0
 37 29  4  0
 37 32  4  0
  2 23  4  0
  2 39  4  0
M  END
$$$$

     RDKit          3D

 40 45  0  0  0  0  0  0  0  0999 V2000
   -7.6410    4.9930    6.8080 C   0  0  0  0  0  0  0  0  0  1  0  0
   -7.7310    4.0530    5.7140 C   0  0  0  0  0  0  0  0  0  2  0  0
   -6.4520    5.6300    6.8680 N   0  0  0  0  0  0  0  0  0  0  0  0
   -6.2260    6.5240    7.8670 N   0  0  0  0  0  0  0  0  0  0  0  0
   -7.1930    6.7500    8.7820 C   0  0  0  0  0  0  0  0  0  0  0  0
   -8.4240    6.1170    8.7580 C   0  0  0  0  0  0  0  0  0  0  0  0
   -9.3950    6.3570    9.7450 N   0  0  0  0  0  0  0  0  0  0  0  0
  -10.5620    5.6840    9.7600 C   0  0  0  0  0  0  0  0  0  0  0  0
  -11.5770    5.6820   10.5960 N   0  0  0  0  0  0  0  0  0  0  0  0
  -12.4690    4.7490   10.1080 N   0  0  0  0  0  0  0  0  0  0  0  0
  -12.0160    4.1880    8.9920 N   0  0  0  0  0  0  0  0  0  0  0  0
  -10.8400    4.7900    8.7610 N   0  0  0  0  0  0  0  0  0  0  0  0
   -9.9950    4.4790    7.6090 C   0  0  0  0  0  0  0  0  0  0  0  0
   -8.6630    5.2070    7.7200 C   0  0  0  0  0  0  0  0  0  0  0  0
  -10.7490    4.8610    6.3730 C   0  0  0  0  0  0  0  0  0  0  0  0
  -11.0350    6.2020    6.1170 C   0  0  0  0  0  0  0  0  0  0  0  0
  -11.7370    6.5580    4.9650 C   0  0  0  0  0  0  0  0  0  0  0  0
  -12.1550    5.5730    4.0710 C   0  0  0  0  0  0  0  0  0  0  0  0
  -11.8700    4.2310    4.3270 C   0  0  0  0  0  0  0  0  0  0  0  0
  -11.1660    3.8760    5.4790 C   0  0  0  0  0  0  0  0  0  0  0  0
  -12.0160    7.8660    4.7150 O   0  0  0  0  0  0  0  0  0  0  0  0
   -6.8990    7.6510    9.7710 O   0  0  0  0  0  0  0  0  0  0  0  0
   -6.8824    3.0331    5.4440 N   0  0  0  0  0  0  0  0  0  0  0  0
   -7.3170    2.3608    4.3883 N   0  0  0  0  0  0  0  0  0  0  0  0
   -8.4652    2.9449    3.9981 C   0  0  0  0  0  0  0  0  0  0  0  0
   -9.4232    2.3963    2.5809 S   0  0  0  0  0  0  0  0  0  0  0  0
   -8.5398    3.4695    1.3893 C   0  0  0  0  0  0  0  0  0  0  0  0
   -7.1691    2.9483    1.0359 C   0  0  0  0  0  0  0  0  0  0  0  0
   -6.8341    1.7854    1.3941 O   0  0  0  0  0  0  0  0  0  0  0  0
   -6.2380    3.7623    0.2901 N   0  0  0  0  0  0  0  0  0  0  0  0
   -4.8192    3.3790    0.2167 C   0  0  0  0  0  0  0  0  0  0  0  0
   -3.9290    4.6218    0.3298 C   0  0  0  0  0  0  0  0  0  0  0  0
   -4.3210    5.7503   -0.6508 C   0  0  0  0  0  0  0  0  0  0  0  0
   -5.6336    5.4761   -1.4118 C   0  0  0  0  0  0  0  0  0  0  0  0
   -6.1141    6.7162   -2.1227 C   0  0  0  0  0  0  0  0  0  0  0  0
   -6.2167    6.7417   -3.5468 N   0  0  0  0  0  0  0  0  0  0  0  0
   -6.4325    7.7412   -1.4611 O   0  0  0  0  0  0  0  0  0  0  0  0
   -6.7176    4.9336   -0.4637 C   0  0  0  0  0  0  0  0  0  0  0  0
   -8.7817    3.9916    4.7843 N   0  0  0  0  0  0  0  0  0  0  0  0
   -9.9263    4.8914    4.6547 C   0  0  0  0  0  0  0  0  0  0  0  0
  1  3  4  0
  1 14  4  0
  1  2  1  0
  3  4  4  0
  4  5  4  0
  5  6  4  0
  5 22  1  0
  6  7  1  0
  6 14  4  0
  7  8  1  0
  8  9  4  0
  8 12  4  0
  9 10  4  0
 10 11  4  0
 11 12  4  0
 12 13  1  0
 13 14  1  0
 13 15  1  6
 15 16  4  0
 15 20  4  0
 16 17  4  0
 17 18  4  0
 17 21  1  0
 18 19  4  0
 19 20  4  0
 23 24  4  0
 24 25  4  0
 25 26  1  0
 26 27  1  0
 27 28  1  0
 28 29  2  0
 28 30  1  0
 30 31  1  0
 31 32  1  0
 32 33  1  0
 33 34  1  0
 34 35  1  0
 35 36  1  0
 35 37  2  0
 34 38  1  0
 25 39  4  0
 39 40  1  0
 38 30  1  0
  2 23  4  0
  2 39  4  0
M  END
$$$$

     RDKit          3D

 40 45  0  0  0  0  0  0  0  0999 V2000
   -7.6410    4.9930    6.8080 C   0  0  0  0  0  0  0  0  0  1  0  0
   -7.7310    4.0530    5.7140 C   0  0  0  0  0  0  0  0  0  2  0  0
   -6.4520    5.6300    6.8680 N   0  0  0  0  0  0  0  0  0  0  0  0
   -6.2260    6.5240    7.8670 N   0  0  0  0  0  0  0  0  0  0  0  0
   -7.1930    6.7500    8.7820 C   0  0  0  0  0  0  0  0  0  0  0  0
   -8.4240    6.1170    8.7580 C   0  0  0  0  0  0  0  0  0  0  0  0
   -9.3950    6.3570    9.7450 N   0  0  0  0  0  0  0  0  0  0  0  0
  -10.5620    5.6840    9.7600 C   0  0  0  0  0  0  0  0  0  0  0  0
  -11.5770    5.6820   10.5960 N   0  0  0  0  0  0  0  0  0  0  0  0
  -12.4690    4.7490   10.1080 N   0  0  0  0  0  0  0  0  0  0  0  0
  -12.0160    4.1880    8.9920 N   0  0  0  0  0  0  0  0  0  0  0  0
  -10.8400    4.7900    8.7610 N   0  0  0  0  0  0  0  0  0  0  0  0
   -9.9950    4.4790    7.6090 C   0  0  0  0  0  0  0  0  0  0  0  0
   -8.6630    5.2070    7.7200 C   0  0  0  0  0  0  0  0  0  0  0  0
  -10.7490    4.8610    6.3730 C   0  0  0  0  0  0  0  0  0  0  0  0
  -11.0350    6.2020    6.1170 C   0  0  0  0  0  0  0  0  0  0  0  0
  -11.7370    6.5580    4.9650 C   0  0  0  0  0  0  0  0  0  0  0  0
  -12.1550    5.5730    4.0710 C   0  0  0  0  0  0  0  0  0  0  0  0
  -11.8700    4.2310    4.3270 C   0  0  0  0  0  0  0  0  0  0  0  0
  -11.1660    3.8760    5.4790 C   0  0  0  0  0  0  0  0  0  0  0  0
  -12.0160    7.8660    4.7150 O   0  0  0  0  0  0  0  0  0  0  0  0
   -6.8990    7.6510    9.7710 O   0  0  0  0  0  0  0  0  0  0  0  0
   -6.9201    2.9901    5.4975 N   0  0  0  0  0  0  0  0  0  0  0  0
   -7.3170    2.3536    4.4038 N   0  0  0  0  0  0  0  0  0  0  0  0
   -8.3956    3.0082    3.9390 C   0  0  0  0  0  0  0  0  0  0  0  0
   -9.2780    2.5270    2.4512 S   0  0  0  0  0  0  0  0  0  0  0  0
   -8.0744    3.2983    1.3109 C   0  0  0  0  0  0  0  0  0  0  0  0
   -8.1550    4.8006    1.3535 C   0  0  0  0  0  0  0  0  0  0  0  0
   -7.1542    5.4300    1.7933 O   0  0  0  0  0  0  0  0  0  0  0  0
   -9.3212    5.5379    0.9149 N   0  0  0  0  0  0  0  0  0  0  0  0
  -10.4882    4.8791    0.3013 C   0  0  0  0  0  0  0  0  0  0  0  0
  -10.9743    5.6545   -0.9356 C   0  0  0  0  0  0  0  0  0  0  0  0
  -10.9235    7.1892   -0.7751 C   0  0  0  0  0  0  0  0  0  0  0  0
  -10.6768    7.6233    0.6787 C   0  0  0  0  0  0  0  0  0  0  0  0
  -10.6383    9.1279    0.7958 C   0  0  0  0  0  0  0  0  0  0  0  0
   -9.6400    9.9002    0.1225 N   0  0  0  0  0  0  0  0  0  0  0  0
  -11.5134    9.7193    1.4838 O   0  0  0  0  0  0  0  0  0  0  0  0
   -9.3783    6.9821    1.2043 C   0  0  0  0  0  0  0  0  0  0  0  0
   -8.7065    4.0644    4.7164 N   0  0  0  0  0  0  0  0  0  0  0  0
   -9.8349    4.9817    4.5805 C   0  0  0  0  0  0  0  0  0  0  0  0
  1  3  4  0
  1 14  4  0
  1  2  1  0
  3  4  4  0
  4  5  4  0
  5  6  4  0
  5 22  1  0
  6  7  1  0
  6 14  4  0
  7  8  1  0
  8  9  4  0
  8 12  4  0
  9 10  4  0
 10 11  4  0
 11 12  4  0
 12 13  1  0
 13 14  1  0
 13 15  1  6
 15 16  4  0
 15 20  4  0
 16 17  4  0
 17 18  4  0
 17 21  1  0
 18 19  4  0
 19 20  4  0
 23 24  4  0
 24 25  4  0
 25 26  1  0
 26 27  1  0
 27 28  1  0
 28 29  2  0
 28 30  1  0
 30 31  1  0
 31 32  1  0
 32 33  1  0
 33 34  1  0
 34 35  1  0
 35 36  1  0
 35 37  2  0
 34 38  1  0
 25 39  4  0
 39 40  1  0
 38 30  1  0
  2 23  4  0
  2 39  4  0
M  END
$$$$

     RDKit          3D

 40 45  0  0  0  0  0  0  0  0999 V2000
   -7.6410    4.9930    6.8080 C   0  0  0  0  0  0  0  0  0  1  0  0
   -7.7310    4.0530    5.7140 C   0  0  0  0  0  0  0  0  0  2  0  0
   -6.4520    5.6300    6.8680 N   0  0  0  0  0  0  0  0  0  0  0  0
   -6.2260    6.5240    7.8670 N   0  0  0  0  0  0  0  0  0  0  0  0
   -7.1930    6.7500    8.7820 C   0  0  0  0  0  0  0  0  0  0  0  0
   -8.4240    6.1170    8.7580 C   0  0  0  0  0  0  0  0  0  0  0  0
   -9.3950    6.3570    9.7450 N   0  0  0  0  0  0  0  0  0  0  0  0
  -10.5620    5.6840    9.7600 C   0  0  0  0  0  0  0  0  0  0  0  0
  -11.5770    5.6820   10.5960 N   0  0  0  0  0  0  0  0  0  0  0  0
  -12.4690    4.7490   10.1080 N   0  0  0  0  0  0  0  0  0  0  0  0
  -12.0160    4.1880    8.9920 N   0  0  0  0  0  0  0  0  0  0  0  0
  -10.8400    4.7900    8.7610 N   0  0  0  0  0  0  0  0  0  0  0  0
   -9.9950    4.4790    7.6090 C   0  0  0  0  0  0  0  0  0  0  0  0
   -8.6630    5.2070    7.7200 C   0  0  0  0  0  0  0  0  0  0  0  0
  -10.7490    4.8610    6.3730 C   0  0  0  0  0  0  0  0  0  0  0  0
  -11.0350    6.2020    6.1170 C   0  0  0  0  0  0  0  0  0  0  0  0
  -11.7370    6.5580    4.9650 C   0  0  0  0  0  0  0  0  0  0  0  0
  -12.1550    5.5730    4.0710 C   0  0  0  0  0  0  0  0  0  0  0  0
  -11.8700    4.2310    4.3270 C   0  0  0  0  0  0  0  0  0  0  0  0
  -11.1660    3.8760    5.4790 C   0  0  0  0  0  0  0  0  0  0  0  0
  -12.0160    7.8660    4.7150 O   0  0  0  0  0  0  0  0  0  0  0  0
   -6.8990    7.6510    9.7710 O   0  0  0  0  0  0  0  0  0  0  0  0
   -6.8825    3.0301    5.4523 N   0  0  0  0  0  0  0  0  0  0  0  0
   -7.3188    2.3509    4.4014 N   0  0  0  0  0  0  0  0  0  0  0  0
   -8.4653    2.9351    4.0074 C   0  0  0  0  0  0  0  0  0  0  0  0
   -9.4370    2.3633    2.6125 S   0  0  0  0  0  0  0  0  0  0  0  0
   -8.5152    3.3720    1.4069 C   0  0  0  0  0  0  0  0  0  0  0  0
   -9.1247    3.2008    0.0433 C   0  0  0  0  0  0  0  0  0  0  0  0
  -10.3091    3.5999   -0.1286 O   0  0  0  0  0  0  0  0  0  0  0  0
   -8.4056    2.5968   -1.0565 N   0  0  0  0  0  0  0  0  0  0  0  0
   -6.9337    2.5474   -1.0541 C   0  0  0  0  0  0  0  0  0  0  0  0
   -6.3771    2.1591   -2.4278 C   0  0  0  0  0  0  0  0  0  0  0  0
   -7.0138    0.8565   -2.9286 C   0  0  0  0  0  0  0  0  0  0  0  0
   -8.5635    0.8345   -2.7992 C   0  0  0  0  0  0  0  0  0  0  0  0
   -9.0179   -0.3251   -1.9433 C   0  0  0  0  0  0  0  0  0  0  0  0
   -9.8319   -1.3604   -2.4958 N   0  0  0  0  0  0  0  0  0  0  0  0
   -8.6799   -0.3845   -0.7299 O   0  0  0  0  0  0  0  0  0  0  0  0
   -9.1418    2.1568   -2.2535 C   0  0  0  0  0  0  0  0  0  0  0  0
   -8.7774    3.9905    4.7832 N   0  0  0  0  0  0  0  0  0  0  0  0
   -9.9310    4.8795    4.6587 C   0  0  0  0  0  0  0  0  0  0  0  0
  1  3  4  0
  1 14  4  0
  1  2  1  0
  3  4  4  0
  4  5  4  0
  5  6  4  0
  5 22  1  0
  6  7  1  0
  6 14  4  0
  7  8  1  0
  8  9  4  0
  8 12  4  0
  9 10  4  0
 10 11  4  0
 11 12  4  0
 12 13  1  0
 13 14  1  0
 13 15  1  6
 15 16  4  0
 15 20  4  0
 16 17  4  0
 17 18  4  0
 17 21  1  0
 18 19  4  0
 19 20  4  0
 23 24  4  0
 24 25  4  0
 25 26  1  0
 26 27  1  0
 27 28  1  0
 28 29  2  0
 28 30  1  0
 30 31  1  0
 31 32  1  0
 32 33  1  0
 33 34  1  0
 34 35  1  0
 35 36  1  0
 35 37  2  0
 34 38  1  0
 25 39  4  0
 39 40  1  0
 38 30  1  0
  2 23  4  0
  2 39  4  0
M  END
$$$$

     RDKit          3D

 29 33  0  0  0  0  0  0  0  0999 V2000
   -7.6410    4.9930    6.8080 C   0  0  0  0  0  0  0  0  0  1  0  0
   -7.7310    4.0530    5.7140 C   0  0  0  0  0  0  0  0  0  2  0  0
   -6.4520    5.6300    6.8680 N   0  0  0  0  0  0  0  0  0  0  0  0
   -6.2260    6.5240    7.8670 N   0  0  0  0  0  0  0  0  0  0  0  0
   -7.1930    6.7500    8.7820 C   0  0  0  0  0  0  0  0  0  0  0  0
   -8.4240    6.1170    8.7580 C   0  0  0  0  0  0  0  0  0  0  0  0
   -9.3950    6.3570    9.7450 N   0  0  0  0  0  0  0  0  0  0  0  0
  -10.5620    5.6840    9.7600 C   0  0  0  0  0  0  0  0  0  0  0  0
  -11.5770    5.6820   10.5960 N   0  0  0  0  0  0  0  0  0  0  0  0
  -12.4690    4.7490   10.1080 N   0  0  0  0  0  0  0  0  0  0  0  0
  -12.0160    4.1880    8.9920 N   0  0  0  0  0  0  0  0  0  0  0  0
  -10.8400    4.7900    8.7610 N   0  0  0  0  0  0  0  0  0  0  0  0
   -9.9950    4.4790    7.6090 C   0  0  0  0  0  0  0  0  0  0  0  0
   -8.6630    5.2070    7.7200 C   0  0  0  0  0  0  0  0  0  0  0  0
  -10.7490    4.8610    6.3730 C   0  0  0  0  0  0  0  0  0  0  0  0
  -11.0350    6.2020    6.1170 C   0  0  0  0  0  0  0  0  0  0  0  0
  -11.7370    6.5580    4.9650 C   0  0  0  0  0  0  0  0  0  0  0  0
  -12.1550    5.5730    4.0710 C   0  0  0  0  0  0  0  0  0  0  0  0
  -11.8700    4.2310    4.3270 C   0  0  0  0  0  0  0  0  0  0  0  0
  -11.1660    3.8760    5.4790 C   0  0  0  0  0  0  0  0  0  0  0  0
  -12.0160    7.8660    4.7150 O   0  0  0  0  0  0  0  0  0  0  0  0
   -6.8990    7.6510    9.7710 O   0  0  0  0  0  0  0  0  0  0  0  0
   -6.7816    3.1266    5.3047 C   0  0  0  0  0  0  0  0  0  0  0  0
   -6.9591    2.2046    4.2633 C   0  0  0  0  0  0  0  0  0  0  0  0
   -5.8465    1.2754    3.8800 C   0  0  0  0  0  0  0  0  0  0  0  0
   -8.2069    2.1112    3.6311 C   0  0  0  0  0  0  0  0  0  0  0  0
   -9.2533    2.9453    4.0182 C   0  0  0  0  0  0  0  0  0  0  0  0
   -9.0691    3.8862    5.0421 C   0  0  0  0  0  0  0  0  0  0  0  0
  -10.1250    4.7225    5.4073 O   0  0  0  0  0  0  0  0  0  0  0  0
  1  3  4  0
  1 14  4  0
  1  2  1  0
  3  4  4  0
  4  5  4  0
  5  6  4  0
  5 22  1  0
  6  7  1  0
  6 14  4  0
  7  8  1  0
  8  9  4  0
  8 12  4  0
  9 10  4  0
 10 11  4  0
 11 12  4  0
 12 13  1  0
 13 14  1  0
 13 15  1  6
 15 16  4  0
 15 20  4  0
 16 17  4  0
 17 18  4  0
 17 21  1  0
 18 19  4  0
 19 20  4  0
 23 24  4  0
 24 25  1  0
 24 26  4  0
 26 27  4  0
 27 28  4  0
 28 29  1  0
  2 23  4  0
  2 28  4  0
M  END
$$$$

     RDKit          3D

 44 50  0  0  0  0  0  0  0  0999 V2000
   -7.6410    4.9930    6.8080 C   0  0  0  0  0  0  0  0  0  1  0  0
   -7.7310    4.0530    5.7140 C   0  0  0  0  0  0  0  0  0  2  0  0
   -6.4520    5.6300    6.8680 N   0  0  0  0  0  0  0  0  0  0  0  0
   -6.2260    6.5240    7.8670 N   0  0  0  0  0  0  0  0  0  0  0  0
   -7.1930    6.7500    8.7820 C   0  0  0  0  0  0  0  0  0  0  0  0
   -8.4240    6.1170    8.7580 C   0  0  0  0  0  0  0  0  0  0  0  0
   -9.3950    6.3570    9.7450 N   0  0  0  0  0  0  0  0  0  0  0  0
  -10.5620    5.6840    9.7600 C   0  0  0  0  0  0  0  0  0  0  0  0
  -11.5770    5.6820   10.5960 N   0  0  0  0  0  0  0  0  0  0  0  0
  -12.4690    4.7490   10.1080 N   0  0  0  0  0  0  0  0  0  0  0  0
  -12.0160    4.1880    8.9920 N   0  0  0  0  0  0  0  0  0  0  0  0
  -10.8400    4.7900    8.7610 N   0  0  0  0  0  0  0  0  0  0  0  0
   -9.9950    4.4790    7.6090 C   0  0  0  0  0  0  0  0  0  0  0  0
   -8.6630    5.2070    7.7200 C   0  0  0  0  0  0  0  0  0  0  0  0
  -10.7490    4.8610    6.3730 C   0  0  0  0  0  0  0  0  0  0  0  0
  -11.0350    6.2020    6.1170 C   0  0  0  0  0  0  0  0  0  0  0  0
  -11.7370    6.5580    4.9650 C   0  0  0  0  0  0  0  0  0  0  0  0
  -12.1550    5.5730    4.0710 C   0  0  0  0  0  0  0  0  0  0  0  0
  -11.8700    4.2310    4.3270 C   0  0  0  0  0  0  0  0  0  0  0  0
  -11.1660    3.8760    5.4790 C   0  0  0  0  0  0  0  0  0  0  0  0
  -12.0160    7.8660    4.7150 O   0  0  0  0  0  0  0  0  0  0  0  0
   -6.8990    7.6510    9.7710 O   0  0  0  0  0  0  0  0  0  0  0  0
   -6.8664    3.0578    5.4021 N   0  0  0  0  0  0  0  0  0  0  0  0
   -7.3220    2.3816    4.3531 N   0  0  0  0  0  0  0  0  0  0  0  0
   -8.5033    2.9348    4.0112 C   0  0  0  0  0  0  0  0  0  0  0  0
   -9.4791    2.4139    2.5972 S   0  0  0  0  0  0  0  0  0  0  0  0
   -8.7158    3.6127    1.4512 C   0  0  0  0  0  0  0  0  0  0  0  0
   -7.3156    3.1992    1.1173 C   0  0  0  0  0  0  0  0  0  0  0  0
   -6.1947    3.9436    1.4767 C   0  0  0  0  0  0  0  0  0  0  0  0
   -4.8404    3.1206    0.9190 S   0  0  0  0  0  0  0  0  0  0  0  0
   -5.7293    1.8574    0.2406 C   0  0  0  0  0  0  0  0  0  1  0  0
   -5.1714    0.6909   -0.4809 C   0  0  0  0  0  0  0  0  0  2  0  0
   -3.7821    0.5250   -0.6240 C   0  0  0  0  0  0  0  0  0  0  0  0
   -3.2657   -0.5778   -1.3127 C   0  0  0  0  0  0  0  0  0  0  0  0
   -4.1278   -1.5265   -1.8892 C   0  0  0  0  0  0  0  0  0  0  0  0
   -3.5844   -2.7334   -2.6129 C   0  0  0  0  0  0  0  0  0  0  0  0
   -4.3827   -3.0350   -3.7037 F   0  0  0  0  0  0  0  0  0  0  0  0
   -3.5709   -3.8147   -1.7507 F   0  0  0  0  0  0  0  0  0  0  0  0
   -2.2970   -2.5042   -3.0674 F   0  0  0  0  0  0  0  0  0  0  0  0
   -5.5139   -1.3756   -1.7220 C   0  0  0  0  0  0  0  0  0  0  0  0
   -6.0308   -0.2757   -1.0311 C   0  0  0  0  0  0  0  0  0  0  0  0
   -7.0541    2.0506    0.4335 N   0  0  0  0  0  0  0  0  0  0  0  0
   -8.8174    3.9512    4.8316 N   0  0  0  0  0  0  0  0  0  0  0  0
   -9.8855    4.8542    4.6980 N   0  0  0  0  0  0  0  0  0  0  0  0
  1  3  4  0
  1 14  4  0
  1  2  1  0
  3  4  4  0
  4  5  4  0
  5  6  4  0
  5 22  1  0
  6  7  1  0
  6 14  4  0
  7  8  1  0
  8  9  4  0
  8 12  4  0
  9 10  4  0
 10 11  4  0
 11 12  4  0
 12 13  1  0
 13 14  1  0
 13 15  1  6
 15 16  4  0
 15 20  4  0
 16 17  4  0
 17 18  4  0
 17 21  1  0
 18 19  4  0
 19 20  4  0
 23 24  4  0
 24 25  4  0
 25 26  1  0
 26 27  1  0
 27 28  1  0
 28 29  4  0
 29 30  4  0
 30 31  4  0
 31 32  1  0
 32 33  4  0
 33 34  4  0
 34 35  4  0
 35 36  1  0
 36 37  1  0
 36 38  1  0
 36 39  1  0
 35 40  4  0
 40 41  4  0
 31 42  4  0
 25 43  4  0
 43 44  1  0
 42 28  4  0
 41 32  4  0
  2 23  4  0
  2 43  4  0
M  END
$$$$

     RDKit          3D

 44 50  0  0  0  0  0  0  0  0999 V2000
   -7.6410    4.9930    6.8080 C   0  0  0  0  0  0  0  0  0  1  0  0
   -7.7310    4.0530    5.7140 C   0  0  0  0  0  0  0  0  0  2  0  0
   -6.4520    5.6300    6.8680 N   0  0  0  0  0  0  0  0  0  0  0  0
   -6.2260    6.5240    7.8670 N   0  0  0  0  0  0  0  0  0  0  0  0
   -7.1930    6.7500    8.7820 C   0  0  0  0  0  0  0  0  0  0  0  0
   -8.4240    6.1170    8.7580 C   0  0  0  0  0  0  0  0  0  0  0  0
   -9.3950    6.3570    9.7450 N   0  0  0  0  0  0  0  0  0  0  0  0
  -10.5620    5.6840    9.7600 C   0  0  0  0  0  0  0  0  0  0  0  0
  -11.5770    5.6820   10.5960 N   0  0  0  0  0  0  0  0  0  0  0  0
  -12.4690    4.7490   10.1080 N   0  0  0  0  0  0  0  0  0  0  0  0
  -12.0160    4.1880    8.9920 N   0  0  0  0  0  0  0  0  0  0  0  0
  -10.8400    4.7900    8.7610 N   0  0  0  0  0  0  0  0  0  0  0  0
   -9.9950    4.4790    7.6090 C   0  0  0  0  0  0  0  0  0  0  0  0
   -8.6630    5.2070    7.7200 C   0  0  0  0  0  0  0  0  0  0  0  0
  -10.7490    4.8610    6.3730 C   0  0  0  0  0  0  0  0  0  0  0  0
  -11.0350    6.2020    6.1170 C   0  0  0  0  0  0  0  0  0  0  0  0
  -11.7370    6.5580    4.9650 C   0  0  0  0  0  0  0  0  0  0  0  0
  -12.1550    5.5730    4.0710 C   0  0  0  0  0  0  0  0  0  0  0  0
  -11.8700    4.2310    4.3270 C   0  0  0  0  0  0  0  0  0  0  0  0
  -11.1660    3.8760    5.4790 C   0  0  0  0  0  0  0  0  0  0  0  0
  -12.0160    7.8660    4.7150 O   0  0  0  0  0  0  0  0  0  0  0  0
   -6.8990    7.6510    9.7710 O   0  0  0  0  0  0  0  0  0  0  0  0
   -6.8615    3.0647    5.3978 N   0  0  0  0  0  0  0  0  0  0  0  0
   -7.3243    2.3739    4.3628 N   0  0  0  0  0  0  0  0  0  0  0  0
   -8.5151    2.9103    4.0338 C   0  0  0  0  0  0  0  0  0  0  0  0
   -9.5210    2.3430    2.6636 S   0  0  0  0  0  0  0  0  0  0  0  0
  -10.4774    1.1902    3.7002 C   0  0  0  0  0  0  0  0  0  0  0  0
  -11.5461    0.5451    2.8776 C   0  0  0  0  0  0  0  0  0  0  0  0
  -11.5928   -0.8231    2.6240 C   0  0  0  0  0  0  0  0  0  0  0  0
  -12.9468   -1.1173    1.6737 S   0  0  0  0  0  0  0  0  0  0  0  0
  -13.4206    0.5001    1.6254 C   0  0  0  0  0  0  0  0  0  1  0  0
  -14.6082    1.0368    0.9221 C   0  0  0  0  0  0  0  0  0  2  0  0
  -14.8914    2.4125    0.9645 C   0  0  0  0  0  0  0  0  0  0  0  0
  -16.0091    2.9291    0.3028 C   0  0  0  0  0  0  0  0  0  0  0  0
  -16.8567    2.0837   -0.4317 C   0  0  0  0  0  0  0  0  0  0  0  0
  -18.0894    2.6330   -1.1051 C   0  0  0  0  0  0  0  0  0  0  0  0
  -19.1500    2.5881   -0.2193 F   0  0  0  0  0  0  0  0  0  0  0  0
  -17.8882    3.9440   -1.5017 F   0  0  0  0  0  0  0  0  0  0  0  0
  -18.4062    1.8858   -2.2266 F   0  0  0  0  0  0  0  0  0  0  0  0
  -16.5904    0.7050   -0.4519 C   0  0  0  0  0  0  0  0  0  0  0  0
  -15.4730    0.1875    0.2099 C   0  0  0  0  0  0  0  0  0  0  0  0
  -12.5576    1.2703    2.3264 N   0  0  0  0  0  0  0  0  0  0  0  0
   -8.8254    3.9344    4.8448 N   0  0  0  0  0  0  0  0  0  0  0  0
   -9.9092    4.8194    4.7215 N   0  0  0  0  0  0  0  0  0  0  0  0
  1  3  4  0
  1 14  4  0
  1  2  1  0
  3  4  4  0
  4  5  4  0
  5  6  4  0
  5 22  1  0
  6  7  1  0
  6 14  4  0
  7  8  1  0
  8  9  4  0
  8 12  4  0
  9 10  4  0
 10 11  4  0
 11 12  4  0
 12 13  1  0
 13 14  1  0
 13 15  1  6
 15 16  4  0
 15 20  4  0
 16 17  4  0
 17 18  4  0
 17 21  1  0
 18 19  4  0
 19 20  4  0
 23 24  4  0
 24 25  4  0
 25 26  1  0
 26 27  1  0
 27 28  1  0
 28 29  4  0
 29 30  4  0
 30 31  4  0
 31 32  1  0
 32 33  4  0
 33 34  4  0
 34 35  4  0
 35 36  1  0
 36 37  1  0
 36 38  1  0
 36 39  1  0
 35 40  4  0
 40 41  4  0
 31 42  4  0
 25 43  4  0
 43 44  1  0
 42 28  4  0
 41 32  4  0
  2 23  4  0
  2 43  4  0
M  END
$$$$

     RDKit          3D

 44 50  0  0  0  0  0  0  0  0999 V2000
   -7.6410    4.9930    6.8080 C   0  0  0  0  0  0  0  0  0  1  0  0
   -7.7310    4.0530    5.7140 C   0  0  0  0  0  0  0  0  0  2  0  0
   -6.4520    5.6300    6.8680 N   0  0  0  0  0  0  0  0  0  0  0  0
   -6.2260    6.5240    7.8670 N   0  0  0  0  0  0  0  0  0  0  0  0
   -7.1930    6.7500    8.7820 C   0  0  0  0  0  0  0  0  0  0  0  0
   -8.4240    6.1170    8.7580 C   0  0  0  0  0  0  0  0  0  0  0  0
   -9.3950    6.3570    9.7450 N   0  0  0  0  0  0  0  0  0  0  0  0
  -10.5620    5.6840    9.7600 C   0  0  0  0  0  0  0  0  0  0  0  0
  -11.5770    5.6820   10.5960 N   0  0  0  0  0  0  0  0  0  0  0  0
  -12.4690    4.7490   10.1080 N   0  0  0  0  0  0  0  0  0  0  0  0
  -12.0160    4.1880    8.9920 N   0  0  0  0  0  0  0  0  0  0  0  0
  -10.8400    4.7900    8.7610 N   0  0  0  0  0  0  0  0  0  0  0  0
   -9.9950    4.4790    7.6090 C   0  0  0  0  0  0  0  0  0  0  0  0
   -8.6630    5.2070    7.7200 C   0  0  0  0  0  0  0  0  0  0  0  0
  -10.7490    4.8610    6.3730 C   0  0  0  0  0  0  0  0  0  0  0  0
  -11.0350    6.2020    6.1170 C   0  0  0  0  0  0  0  0  0  0  0  0
  -11.7370    6.5580    4.9650 C   0  0  0  0  0  0  0  0  0  0  0  0
  -12.1550    5.5730    4.0710 C   0  0  0  0  0  0  0  0  0  0  0  0
  -11.8700    4.2310    4.3270 C   0  0  0  0  0  0  0  0  0  0  0  0
  -11.1660    3.8760    5.4790 C   0  0  0  0  0  0  0  0  0  0  0  0
  -12.0160    7.8660    4.7150 O   0  0  0  0  0  0  0  0  0  0  0  0
   -6.8990    7.6510    9.7710 O   0  0  0  0  0  0  0  0  0  0  0  0
   -6.8523    3.0773    5.3864 N   0  0  0  0  0  0  0  0  0  0  0  0
   -7.3085    2.3941    4.3435 N   0  0  0  0  0  0  0  0  0  0  0  0
   -8.5041    2.9229    4.0203 C   0  0  0  0  0  0  0  0  0  0  0  0
   -9.4940    2.3733    2.6307 S   0  0  0  0  0  0  0  0  0  0  0  0
   -8.7177    3.5429    1.4695 C   0  0  0  0  0  0  0  0  0  0  0  0
   -9.3235    3.3794    0.1123 C   0  0  0  0  0  0  0  0  0  0  0  0
  -10.0412    4.3857   -0.5288 C   0  0  0  0  0  0  0  0  0  0  0  0
  -10.5321    3.7879   -2.0201 S   0  0  0  0  0  0  0  0  0  0  0  0
   -9.8133    2.2795   -1.7940 C   0  0  0  0  0  0  0  0  0  1  0  0
   -9.8326    1.1553   -2.7578 C   0  0  0  0  0  0  0  0  0  2  0  0
  -10.4891    1.2737   -3.9952 C   0  0  0  0  0  0  0  0  0  0  0  0
  -10.5013    0.2062   -4.8975 C   0  0  0  0  0  0  0  0  0  0  0  0
   -9.8421   -0.9955   -4.5904 C   0  0  0  0  0  0  0  0  0  0  0  0
   -9.8985   -2.1632   -5.5432 C   0  0  0  0  0  0  0  0  0  0  0  0
   -8.7728   -2.9576   -5.4103 F   0  0  0  0  0  0  0  0  0  0  0  0
  -11.0204   -2.9219   -5.2669 F   0  0  0  0  0  0  0  0  0  0  0  0
   -9.9638   -1.7218   -6.8536 F   0  0  0  0  0  0  0  0  0  0  0  0
   -9.2095   -1.1242   -3.3430 C   0  0  0  0  0  0  0  0  0  0  0  0
   -9.1967   -0.0571   -2.4403 C   0  0  0  0  0  0  0  0  0  0  0  0
   -9.1985    2.2203   -0.5906 N   0  0  0  0  0  0  0  0  0  0  0  0
   -8.8259    3.9328    4.8452 N   0  0  0  0  0  0  0  0  0  0  0  0
   -9.9078    4.8199    4.7205 N   0  0  0  0  0  0  0  0  0  0  0  0
  1  3  4  0
  1 14  4  0
  1  2  1  0
  3  4  4  0
  4  5  4  0
  5  6  4  0
  5 22  1  0
  6  7  1  0
  6 14  4  0
  7  8  1  0
  8  9  4  0
  8 12  4  0
  9 10  4  0
 10 11  4  0
 11 12  4  0
 12 13  1  0
 13 14  1  0
 13 15  1  6
 15 16  4  0
 15 20  4  0
 16 17  4  0
 17 18  4  0
 17 21  1  0
 18 19  4  0
 19 20  4  0
 23 24  4  0
 24 25  4  0
 25 26  1  0
 26 27  1  0
 27 28  1  0
 28 29  4  0
 29 30  4  0
 30 31  4  0
 31 32  1  0
 32 33  4  0
 33 34  4  0
 34 35  4  0
 35 36  1  0
 36 37  1  0
 36 38  1  0
 36 39  1  0
 35 40  4  0
 40 41  4  0
 31 42  4  0
 25 43  4  0
 43 44  1  0
 42 28  4  0
 41 32  4  0
  2 23  4  0
  2 43  4  0
M  END
$$$$

     RDKit          3D

 44 50  0  0  0  0  0  0  0  0999 V2000
   -7.6410    4.9930    6.8080 C   0  0  0  0  0  0  0  0  0  1  0  0
   -7.7310    4.0530    5.7140 C   0  0  0  0  0  0  0  0  0  2  0  0
   -6.4520    5.6300    6.8680 N   0  0  0  0  0  0  0  0  0  0  0  0
   -6.2260    6.5240    7.8670 N   0  0  0  0  0  0  0  0  0  0  0  0
   -7.1930    6.7500    8.7820 C   0  0  0  0  0  0  0  0  0  0  0  0
   -8.4240    6.1170    8.7580 C   0  0  0  0  0  0  0  0  0  0  0  0
   -9.3950    6.3570    9.7450 N   0  0  0  0  0  0  0  0  0  0  0  0
  -10.5620    5.6840    9.7600 C   0  0  0  0  0  0  0  0  0  0  0  0
  -11.5770    5.6820   10.5960 N   0  0  0  0  0  0  0  0  0  0  0  0
  -12.4690    4.7490   10.1080 N   0  0  0  0  0  0  0  0  0  0  0  0
  -12.0160    4.1880    8.9920 N   0  0  0  0  0  0  0  0  0  0  0  0
  -10.8400    4.7900    8.7610 N   0  0  0  0  0  0  0  0  0  0  0  0
   -9.9950    4.4790    7.6090 C   0  0  0  0  0  0  0  0  0  0  0  0
   -8.6630    5.2070    7.7200 C   0  0  0  0  0  0  0  0  0  0  0  0
  -10.7490    4.8610    6.3730 C   0  0  0  0  0  0  0  0  0  0  0  0
  -11.0350    6.2020    6.1170 C   0  0  0  0  0  0  0  0  0  0  0  0
  -11.7370    6.5580    4.9650 C   0  0  0  0  0  0  0  0  0  0  0  0
  -12.1550    5.5730    4.0710 C   0  0  0  0  0  0  0  0  0  0  0  0
  -11.8700    4.2310    4.3270 C   0  0  0  0  0  0  0  0  0  0  0  0
  -11.1660    3.8760    5.4790 C   0  0  0  0  0  0  0  0  0  0  0  0
  -12.0160    7.8660    4.7150 O   0  0  0  0  0  0  0  0  0  0  0  0
   -6.8990    7.6510    9.7710 O   0  0  0  0  0  0  0  0  0  0  0  0
   -6.8450    3.0867    5.3772 N   0  0  0  0  0  0  0  0  0  0  0  0
   -7.3138    2.3845    4.3525 N   0  0  0  0  0  0  0  0  0  0  0  0
   -8.5240    2.8919    4.0489 C   0  0  0  0  0  0  0  0  0  0  0  0
   -9.5494    2.2967    2.7023 S   0  0  0  0  0  0  0  0  0  0  0  0
  -10.4521    1.0692    3.7139 C   0  0  0  0  0  0  0  0  0  0  0  0
  -10.1165   -0.3153    3.2569 C   0  0  0  0  0  0  0  0  0  0  0  0
   -8.8399   -0.8625    3.3591 C   0  0  0  0  0  0  0  0  0  0  0  0
   -8.9022   -2.4200    2.7325 S   0  0  0  0  0  0  0  0  0  0  0  0
  -10.5462   -2.3414    2.3681 C   0  0  0  0  0  0  0  0  0  1  0  0
  -11.3513   -3.4264    1.7636 C   0  0  0  0  0  0  0  0  0  2  0  0
  -10.7353   -4.5728    1.2311 C   0  0  0  0  0  0  0  0  0  0  0  0
  -11.5043   -5.5939    0.6639 C   0  0  0  0  0  0  0  0  0  0  0  0
  -12.9067   -5.4993    0.6372 C   0  0  0  0  0  0  0  0  0  0  0  0
  -13.7580   -6.5817    0.0219 C   0  0  0  0  0  0  0  0  0  0  0  0
  -13.0184   -7.7219   -0.2426 F   0  0  0  0  0  0  0  0  0  0  0  0
  -14.3017   -6.1184   -1.1622 F   0  0  0  0  0  0  0  0  0  0  0  0
  -14.7842   -6.9202    0.8874 F   0  0  0  0  0  0  0  0  0  0  0  0
  -13.5216   -4.3520    1.1641 C   0  0  0  0  0  0  0  0  0  0  0  0
  -12.7528   -3.3264    1.7219 C   0  0  0  0  0  0  0  0  0  0  0  0
  -11.0567   -1.1380    2.7174 N   0  0  0  0  0  0  0  0  0  0  0  0
   -8.8417    3.9081    4.8668 N   0  0  0  0  0  0  0  0  0  0  0  0
   -9.9418    4.7739    4.7566 N   0  0  0  0  0  0  0  0  0  0  0  0
  1  3  4  0
  1 14  4  0
  1  2  1  0
  3  4  4  0
  4  5  4  0
  5  6  4  0
  5 22  1  0
  6  7  1  0
  6 14  4  0
  7  8  1  0
  8  9  4  0
  8 12  4  0
  9 10  4  0
 10 11  4  0
 11 12  4  0
 12 13  1  0
 13 14  1  0
 13 15  1  6
 15 16  4  0
 15 20  4  0
 16 17  4  0
 17 18  4  0
 17 21  1  0
 18 19  4  0
 19 20  4  0
 23 24  4  0
 24 25  4  0
 25 26  1  0
 26 27  1  0
 27 28  1  0
 28 29  4  0
 29 30  4  0
 30 31  4  0
 31 32  1  0
 32 33  4  0
 33 34  4  0
 34 35  4  0
 35 36  1  0
 36 37  1  0
 36 38  1  0
 36 39  1  0
 35 40  4  0
 40 41  4  0
 31 42  4  0
 25 43  4  0
 43 44  1  0
 42 28  4  0
 41 32  4  0
  2 23  4  0
  2 43  4  0
M  END
$$$$

     RDKit          3D

 45 51  0  0  0  0  0  0  0  0999 V2000
   -7.6410    4.9930    6.8080 C   0  0  0  0  0  0  0  0  0  1  0  0
   -7.7310    4.0530    5.7140 C   0  0  0  0  0  0  0  0  0  2  0  0
   -6.4520    5.6300    6.8680 N   0  0  0  0  0  0  0  0  0  0  0  0
   -6.2260    6.5240    7.8670 N   0  0  0  0  0  0  0  0  0  0  0  0
   -7.1930    6.7500    8.7820 C   0  0  0  0  0  0  0  0  0  0  0  0
   -8.4240    6.1170    8.7580 C   0  0  0  0  0  0  0  0  0  0  0  0
   -9.3950    6.3570    9.7450 N   0  0  0  0  0  0  0  0  0  0  0  0
  -10.5620    5.6840    9.7600 C   0  0  0  0  0  0  0  0  0  0  0  0
  -11.5770    5.6820   10.5960 N   0  0  0  0  0  0  0  0  0  0  0  0
  -12.4690    4.7490   10.1080 N   0  0  0  0  0  0  0  0  0  0  0  0
  -12.0160    4.1880    8.9920 N   0  0  0  0  0  0  0  0  0  0  0  0
  -10.8400    4.7900    8.7610 N   0  0  0  0  0  0  0  0  0  0  0  0
   -9.9950    4.4790    7.6090 C   0  0  0  0  0  0  0  0  0  0  0  0
   -8.6630    5.2070    7.7200 C   0  0  0  0  0  0  0  0  0  0  0  0
  -10.7490    4.8610    6.3730 C   0  0  0  0  0  0  0  0  0  0  0  0
  -11.0350    6.2020    6.1170 C   0  0  0  0  0  0  0  0  0  0  0  0
  -11.7370    6.5580    4.9650 C   0  0  0  0  0  0  0  0  0  0  0  0
  -12.1550    5.5730    4.0710 C   0  0  0  0  0  0  0  0  0  0  0  0
  -11.8700    4.2310    4.3270 C   0  0  0  0  0  0  0  0  0  0  0  0
  -11.1660    3.8760    5.4790 C   0  0  0  0  0  0  0  0  0  0  0  0
  -12.0160    7.8660    4.7150 O   0  0  0  0  0  0  0  0  0  0  0  0
   -6.8990    7.6510    9.7710 O   0  0  0  0  0  0  0  0  0  0  0  0
   -6.7935    3.1910    5.2673 N   0  0  0  0  0  0  0  0  0  0  0  0
   -7.2874    2.4397    4.2901 N   0  0  0  0  0  0  0  0  0  0  0  0
   -8.5727    2.8073    4.1243 C   0  0  0  0  0  0  0  0  0  0  0  0
   -9.6531    2.1193    2.8682 S   0  0  0  0  0  0  0  0  0  0  0  0
   -9.1777    3.3589    1.6184 C   0  0  0  0  0  0  0  0  0  0  0  0
  -10.0354    3.2063    0.3978 C   0  0  0  0  0  0  0  0  0  0  0  0
  -11.2896    3.2569    0.5230 O   0  0  0  0  0  0  0  0  0  0  0  0
   -9.4563    2.9892   -0.9025 N   0  0  0  0  0  0  0  0  0  0  0  0
   -8.3487    3.8213   -1.3776 C   0  0  0  0  0  0  0  0  0  0  0  0
   -7.3017    2.9417   -2.0581 C   0  0  0  0  0  0  0  0  0  0  0  0
   -7.9237    1.9599   -3.0234 C   0  0  0  0  0  0  0  0  0  0  0  0
   -7.1130    1.3583   -3.9976 C   0  0  0  0  0  0  0  0  0  0  0  0
   -7.6491    0.4277   -4.9086 C   0  0  0  0  0  0  0  0  0  0  0  0
   -6.8659   -0.1774   -5.9059 O   0  0  0  0  0  0  0  0  0  0  0  0
   -5.4810    0.0815   -6.1114 C   0  0  0  0  0  0  0  0  0  0  0  0
   -9.0061    0.0850   -4.8315 C   0  0  0  0  0  0  0  0  0  0  0  0
   -9.5124   -0.8434   -5.7571 O   0  0  0  0  0  0  0  0  0  0  0  0
  -10.8600   -1.3010   -5.7853 C   0  0  0  0  0  0  0  0  0  0  0  0
   -9.8174    0.6733   -3.8425 C   0  0  0  0  0  0  0  0  0  0  0  0
   -9.2859    1.5993   -2.9332 C   0  0  0  0  0  0  0  0  0  0  0  0
  -10.2038    2.2193   -1.9031 C   0  0  0  0  0  0  0  0  0  0  0  0
   -8.9141    3.7808    4.9856 N   0  0  0  0  0  0  0  0  0  0  0  0
  -10.1059    4.5260    4.9902 N   0  0  0  0  0  0  0  0  0  0  0  0
  1  3  4  0
  1 14  4  0
  1  2  1  0
  3  4  4  0
  4  5  4  0
  5  6  4  0
  5 22  1  0
  6  7  1  0
  6 14  4  0
  7  8  1  0
  8  9  4  0
  8 12  4  0
  9 10  4  0
 10 11  4  0
 11 12  4  0
 12 13  1  0
 13 14  1  0
 13 15  1  6
 15 16  4  0
 15 20  4  0
 16 17  4  0
 17 18  4  0
 17 21  1  0
 18 19  4  0
 19 20  4  0
 23 24  4  0
 24 25  4  0
 25 26  1  0
 26 27  1  0
 27 28  1  0
 28 29  2  0
 28 30  1  0
 30 31  1  0
 31 32  1  0
 32 33  1  0
 33 34  4  0
 34 35  4  0
 35 36  1  0
 36 37  1  0
 35 38  4  0
 38 39  1  0
 39 40  1  0
 38 41  4  0
 41 42  4  0
 42 43  1  0
 25 44  4  0
 44 45  1  0
 43 30  1  0
 42 33  4  0
  2 23  4  0
  2 44  4  0
M  END
$$$$

     RDKit          3D

 45 51  0  0  0  0  0  0  0  0999 V2000
   -7.6410    4.9930    6.8080 C   0  0  0  0  0  0  0  0  0  1  0  0
   -7.7310    4.0530    5.7140 C   0  0  0  0  0  0  0  0  0  2  0  0
   -6.4520    5.6300    6.8680 N   0  0  0  0  0  0  0  0  0  0  0  0
   -6.2260    6.5240    7.8670 N   0  0  0  0  0  0  0  0  0  0  0  0
   -7.1930    6.7500    8.7820 C   0  0  0  0  0  0  0  0  0  0  0  0
   -8.4240    6.1170    8.7580 C   0  0  0  0  0  0  0  0  0  0  0  0
   -9.3950    6.3570    9.7450 N   0  0  0  0  0  0  0  0  0  0  0  0
  -10.5620    5.6840    9.7600 C   0  0  0  0  0  0  0  0  0  0  0  0
  -11.5770    5.6820   10.5960 N   0  0  0  0  0  0  0  0  0  0  0  0
  -12.4690    4.7490   10.1080 N   0  0  0  0  0  0  0  0  0  0  0  0
  -12.0160    4.1880    8.9920 N   0  0  0  0  0  0  0  0  0  0  0  0
  -10.8400    4.7900    8.7610 N   0  0  0  0  0  0  0  0  0  0  0  0
   -9.9950    4.4790    7.6090 C   0  0  0  0  0  0  0  0  0  0  0  0
   -8.6630    5.2070    7.7200 C   0  0  0  0  0  0  0  0  0  0  0  0
  -10.7490    4.8610    6.3730 C   0  0  0  0  0  0  0  0  0  0  0  0
  -11.0350    6.2020    6.1170 C   0  0  0  0  0  0  0  0  0  0  0  0
  -11.7370    6.5580    4.9650 C   0  0  0  0  0  0  0  0  0  0  0  0
  -12.1550    5.5730    4.0710 C   0  0  0  0  0  0  0  0  0  0  0  0
  -11.8700    4.2310    4.3270 C   0  0  0  0  0  0  0  0  0  0  0  0
  -11.1660    3.8760    5.4790 C   0  0  0  0  0  0  0  0  0  0  0  0
  -12.0160    7.8660    4.7150 O   0  0  0  0  0  0  0  0  0  0  0  0
   -6.8990    7.6510    9.7710 O   0  0  0  0  0  0  0  0  0  0  0  0
   -6.7899    3.1993    5.2618 N   0  0  0  0  0  0  0  0  0  0  0  0
   -7.2812    2.4504    4.2822 N   0  0  0  0  0  0  0  0  0  0  0  0
   -8.5682    2.8112    4.1209 C   0  0  0  0  0  0  0  0  0  0  0  0
   -9.6469    2.1182    2.8682 S   0  0  0  0  0  0  0  0  0  0  0  0
   -9.2171    3.3870    1.6318 C   0  0  0  0  0  0  0  0  0  0  0  0
   -9.9917    3.1455    0.3680 C   0  0  0  0  0  0  0  0  0  0  0  0
  -10.8985    3.9662    0.0564 O   0  0  0  0  0  0  0  0  0  0  0  0
   -9.7248    2.0075   -0.4832 N   0  0  0  0  0  0  0  0  0  0  0  0
  -10.7847    1.4904   -1.3629 C   0  0  0  0  0  0  0  0  0  0  0  0
  -10.2087    1.1637   -2.7364 C   0  0  0  0  0  0  0  0  0  0  0  0
   -9.0674    0.1972   -2.5945 C   0  0  0  0  0  0  0  0  0  0  0  0
   -8.8353   -0.7687   -3.5824 C   0  0  0  0  0  0  0  0  0  0  0  0
   -7.7679   -1.6822   -3.4667 C   0  0  0  0  0  0  0  0  0  0  0  0
   -7.5352   -2.6482   -4.4585 O   0  0  0  0  0  0  0  0  0  0  0  0
   -8.3102   -2.8072   -5.6430 C   0  0  0  0  0  0  0  0  0  0  0  0
   -6.9223   -1.6131   -2.3298 C   0  0  0  0  0  0  0  0  0  0  0  0
   -5.8295   -2.4714   -2.1073 O   0  0  0  0  0  0  0  0  0  0  0  0
   -5.3928   -3.5231   -2.9606 C   0  0  0  0  0  0  0  0  0  0  0  0
   -7.1641   -0.6405   -1.3524 C   0  0  0  0  0  0  0  0  0  0  0  0
   -8.2300    0.2602   -1.4680 C   0  0  0  0  0  0  0  0  0  0  0  0
   -8.4247    1.3135   -0.3989 C   0  0  0  0  0  0  0  0  0  0  0  0
   -8.9135    3.7789    4.9872 N   0  0  0  0  0  0  0  0  0  0  0  0
  -10.1114    4.5134    4.9990 N   0  0  0  0  0  0  0  0  0  0  0  0
  1  3  4  0
  1 14  4  0
  1  2  1  0
  3  4  4  0
  4  5  4  0
  5  6  4  0
  5 22  1  0
  6  7  1  0
  6 14  4  0
  7  8  1  0
  8  9  4  0
  8 12  4  0
  9 10  4  0
 10 11  4  0
 11 12  4  0
 12 13  1  0
 13 14  1  0
 13 15  1  6
 15 16  4  0
 15 20  4  0
 16 17  4  0
 17 18  4  0
 17 21  1  0
 18 19  4  0
 19 20  4  0
 23 24  4  0
 24 25  4  0
 25 26  1  0
 26 27  1  0
 27 28  1  0
 28 29  2  0
 28 30  1  0
 30 31  1  0
 31 32  1  0
 32 33  1  0
 33 34  4  0
 34 35  4  0
 35 36  1  0
 36 37  1  0
 35 38  4  0
 38 39  1  0
 39 40  1  0
 38 41  4  0
 41 42  4  0
 42 43  1  0
 25 44  4  0
 44 45  1  0
 43 30  1  0
 42 33  4  0
  2 23  4  0
  2 44  4  0
M  END
$$$$

     RDKit          3D

 45 51  0  0  0  0  0  0  0  0999 V2000
   -7.6410    4.9930    6.8080 C   0  0  0  0  0  0  0  0  0  1  0  0
   -7.7310    4.0530    5.7140 C   0  0  0  0  0  0  0  0  0  2  0  0
   -6.4520    5.6300    6.8680 N   0  0  0  0  0  0  0  0  0  0  0  0
   -6.2260    6.5240    7.8670 N   0  0  0  0  0  0  0  0  0  0  0  0
   -7.1930    6.7500    8.7820 C   0  0  0  0  0  0  0  0  0  0  0  0
   -8.4240    6.1170    8.7580 C   0  0  0  0  0  0  0  0  0  0  0  0
   -9.3950    6.3570    9.7450 N   0  0  0  0  0  0  0  0  0  0  0  0
  -10.5620    5.6840    9.7600 C   0  0  0  0  0  0  0  0  0  0  0  0
  -11.5770    5.6820   10.5960 N   0  0  0  0  0  0  0  0  0  0  0  0
  -12.4690    4.7490   10.1080 N   0  0  0  0  0  0  0  0  0  0  0  0
  -12.0160    4.1880    8.9920 N   0  0  0  0  0  0  0  0  0  0  0  0
  -10.8400    4.7900    8.7610 N   0  0  0  0  0  0  0  0  0  0  0  0
   -9.9950    4.4790    7.6090 C   0  0  0  0  0  0  0  0  0  0  0  0
   -8.6630    5.2070    7.7200 C   0  0  0  0  0  0  0  0  0  0  0  0
  -10.7490    4.8610    6.3730 C   0  0  0  0  0  0  0  0  0  0  0  0
  -11.0350    6.2020    6.1170 C   0  0  0  0  0  0  0  0  0  0  0  0
  -11.7370    6.5580    4.9650 C   0  0  0  0  0  0  0  0  0  0  0  0
  -12.1550    5.5730    4.0710 C   0  0  0  0  0  0  0  0  0  0  0  0
  -11.8700    4.2310    4.3270 C   0  0  0  0  0  0  0  0  0  0  0  0
  -11.1660    3.8760    5.4790 C   0  0  0  0  0  0  0  0  0  0  0  0
  -12.0160    7.8660    4.7150 O   0  0  0  0  0  0  0  0  0  0  0  0
   -6.8990    7.6510    9.7710 O   0  0  0  0  0  0  0  0  0  0  0  0
   -6.7738    3.2368    5.2292 N   0  0  0  0  0  0  0  0  0  0  0  0
   -7.2584    2.4970    4.2403 N   0  0  0  0  0  0  0  0  0  0  0  0
   -8.5563    2.8277    4.1027 C   0  0  0  0  0  0  0  0  0  0  0  0
   -9.6216    2.1491    2.8306 S   0  0  0  0  0  0  0  0  0  0  0  0
   -9.2544    3.4918    1.6541 C   0  0  0  0  0  0  0  0  0  0  0  0
   -9.8606    3.1758    0.3202 C   0  0  0  0  0  0  0  0  0  0  0  0
   -9.2532    2.3762   -0.4429 O   0  0  0  0  0  0  0  0  0  0  0  0
  -11.1004    3.7736   -0.1094 N   0  0  0  0  0  0  0  0  0  0  0  0
  -11.3162    4.0943   -1.5220 C   0  0  0  0  0  0  0  0  0  0  0  0
  -12.6401    3.4959   -1.9918 C   0  0  0  0  0  0  0  0  0  0  0  0
  -13.7613    3.7487   -1.0111 C   0  0  0  0  0  0  0  0  0  0  0  0
  -15.0837    3.5870   -1.4416 C   0  0  0  0  0  0  0  0  0  0  0  0
  -16.1666    3.7801   -0.5603 C   0  0  0  0  0  0  0  0  0  0  0  0
  -17.4901    3.6290   -1.0017 O   0  0  0  0  0  0  0  0  0  0  0  0
  -17.8749    3.2906   -2.3300 C   0  0  0  0  0  0  0  0  0  0  0  0
  -15.9046    4.1378    0.7865 C   0  0  0  0  0  0  0  0  0  0  0  0
  -16.9044    4.3532    1.7554 O   0  0  0  0  0  0  0  0  0  0  0  0
  -18.3023    4.1439    1.5841 C   0  0  0  0  0  0  0  0  0  0  0  0
  -14.5804    4.2923    1.2096 C   0  0  0  0  0  0  0  0  0  0  0  0
  -13.5056    4.0850    0.3345 C   0  0  0  0  0  0  0  0  0  0  0  0
  -12.0969    4.2478    0.8588 C   0  0  0  0  0  0  0  0  0  0  0  0
   -8.9164    3.7670    4.9946 N   0  0  0  0  0  0  0  0  0  0  0  0
  -10.1305    4.4723    5.0327 N   0  0  0  0  0  0  0  0  0  0  0  0
  1  3  4  0
  1 14  4  0
  1  2  1  0
  3  4  4  0
  4  5  4  0
  5  6  4  0
  5 22  1  0
  6  7  1  0
  6 14  4  0
  7  8  1  0
  8  9  4  0
  8 12  4  0
  9 10  4  0
 10 11  4  0
 11 12  4  0
 12 13  1  0
 13 14  1  0
 13 15  1  6
 15 16  4  0
 15 20  4  0
 16 17  4  0
 17 18  4  0
 17 21  1  0
 18 19  4  0
 19 20  4  0
 23 24  4  0
 24 25  4  0
 25 26  1  0
 26 27  1  0
 27 28  1  0
 28 29  2  0
 28 30  1  0
 30 31  1  0
 31 32  1  0
 32 33  1  0
 33 34  4  0
 34 35  4  0
 35 36  1  0
 36 37  1  0
 35 38  4  0
 38 39  1  0
 39 40  1  0
 38 41  4  0
 41 42  4  0
 42 43  1  0
 25 44  4  0
 44 45  1  0
 43 30  1  0
 42 33  4  0
  2 23  4  0
  2 44  4  0
M  END
$$$$

     RDKit          3D

 45 51  0  0  0  0  0  0  0  0999 V2000
   -7.6410    4.9930    6.8080 C   0  0  0  0  0  0  0  0  0  1  0  0
   -7.7310    4.0530    5.7140 C   0  0  0  0  0  0  0  0  0  2  0  0
   -6.4520    5.6300    6.8680 N   0  0  0  0  0  0  0  0  0  0  0  0
   -6.2260    6.5240    7.8670 N   0  0  0  0  0  0  0  0  0  0  0  0
   -7.1930    6.7500    8.7820 C   0  0  0  0  0  0  0  0  0  0  0  0
   -8.4240    6.1170    8.7580 C   0  0  0  0  0  0  0  0  0  0  0  0
   -9.3950    6.3570    9.7450 N   0  0  0  0  0  0  0  0  0  0  0  0
  -10.5620    5.6840    9.7600 C   0  0  0  0  0  0  0  0  0  0  0  0
  -11.5770    5.6820   10.5960 N   0  0  0  0  0  0  0  0  0  0  0  0
  -12.4690    4.7490   10.1080 N   0  0  0  0  0  0  0  0  0  0  0  0
  -12.0160    4.1880    8.9920 N   0  0  0  0  0  0  0  0  0  0  0  0
  -10.8400    4.7900    8.7610 N   0  0  0  0  0  0  0  0  0  0  0  0
   -9.9950    4.4790    7.6090 C   0  0  0  0  0  0  0  0  0  0  0  0
   -8.6630    5.2070    7.7200 C   0  0  0  0  0  0  0  0  0  0  0  0
  -10.7490    4.8610    6.3730 C   0  0  0  0  0  0  0  0  0  0  0  0
  -11.0350    6.2020    6.1170 C   0  0  0  0  0  0  0  0  0  0  0  0
  -11.7370    6.5580    4.9650 C   0  0  0  0  0  0  0  0  0  0  0  0
  -12.1550    5.5730    4.0710 C   0  0  0  0  0  0  0  0  0  0  0  0
  -11.8700    4.2310    4.3270 C   0  0  0  0  0  0  0  0  0  0  0  0
  -11.1660    3.8760    5.4790 C   0  0  0  0  0  0  0  0  0  0  0  0
  -12.0160    7.8660    4.7150 O   0  0  0  0  0  0  0  0  0  0  0  0
   -6.8990    7.6510    9.7710 O   0  0  0  0  0  0  0  0  0  0  0  0
   -6.7863    3.2112    5.2485 N   0  0  0  0  0  0  0  0  0  0  0  0
   -7.2833    2.4530    4.2788 N   0  0  0  0  0  0  0  0  0  0  0  0
   -8.5771    2.7960    4.1363 C   0  0  0  0  0  0  0  0  0  0  0  0
   -9.6776    2.0686    2.9170 S   0  0  0  0  0  0  0  0  0  0  0  0
  -10.2705    0.7467    4.0374 C   0  0  0  0  0  0  0  0  0  0  0  0
   -9.3257   -0.4305    4.1016 C   0  0  0  0  0  0  0  0  0  0  0  0
   -8.2421   -0.3893    3.4522 O   0  0  0  0  0  0  0  0  0  0  0  0
   -9.6502   -1.6202    4.8589 N   0  0  0  0  0  0  0  0  0  0  0  0
  -10.7824   -1.6395    5.8020 C   0  0  0  0  0  0  0  0  0  0  0  0
  -10.4818   -2.5624    6.9818 C   0  0  0  0  0  0  0  0  0  0  0  0
  -10.1394   -3.9331    6.4811 C   0  0  0  0  0  0  0  0  0  0  0  0
  -10.5474   -5.0710    7.1867 C   0  0  0  0  0  0  0  0  0  0  0  0
  -10.2427   -6.3565    6.7242 C   0  0  0  0  0  0  0  0  0  0  0  0
  -10.7110   -7.4343    7.4972 O   0  0  0  0  0  0  0  0  0  0  0  0
  -10.7221   -8.8045    7.1118 C   0  0  0  0  0  0  0  0  0  0  0  0
   -9.4952   -6.5063    5.5290 C   0  0  0  0  0  0  0  0  0  0  0  0
   -9.1642   -7.7898    5.0660 O   0  0  0  0  0  0  0  0  0  0  0  0
   -8.5385   -8.0695    3.8137 C   0  0  0  0  0  0  0  0  0  0  0  0
   -9.0819   -5.3528    4.8295 C   0  0  0  0  0  0  0  0  0  0  0  0
   -9.4052   -4.0717    5.2951 C   0  0  0  0  0  0  0  0  0  0  0  0
   -8.8968   -2.8538    4.5545 C   0  0  0  0  0  0  0  0  0  0  0  0
   -8.9204    3.7638    5.0029 N   0  0  0  0  0  0  0  0  0  0  0  0
  -10.1204    4.4955    5.0187 N   0  0  0  0  0  0  0  0  0  0  0  0
  1  3  4  0
  1 14  4  0
  1  2  1  0
  3  4  4  0
  4  5  4  0
  5  6  4  0
  5 22  1  0
  6  7  1  0
  6 14  4  0
  7  8  1  0
  8  9  4  0
  8 12  4  0
  9 10  4  0
 10 11  4  0
 11 12  4  0
 12 13  1  0
 13 14  1  0
 13 15  1  6
 15 16  4  0
 15 20  4  0
 16 17  4  0
 17 18  4  0
 17 21  1  0
 18 19  4  0
 19 20  4  0
 23 24  4  0
 24 25  4  0
 25 26  1  0
 26 27  1  0
 27 28  1  0
 28 29  2  0
 28 30  1  0
 30 31  1  0
 31 32  1  0
 32 33  1  0
 33 34  4  0
 34 35  4  0
 35 36  1  0
 36 37  1  0
 35 38  4  0
 38 39  1  0
 39 40  1  0
 38 41  4  0
 41 42  4  0
 42 43  1  0
 25 44  4  0
 44 45  1  0
 43 30  1  0
 42 33  4  0
  2 23  4  0
  2 44  4  0
M  END
$$$$

     RDKit          3D

 45 51  0  0  0  0  0  0  0  0999 V2000
   -7.6410    4.9930    6.8080 C   0  0  0  0  0  0  0  0  0  1  0  0
   -7.7310    4.0530    5.7140 C   0  0  0  0  0  0  0  0  0  2  0  0
   -6.4520    5.6300    6.8680 N   0  0  0  0  0  0  0  0  0  0  0  0
   -6.2260    6.5240    7.8670 N   0  0  0  0  0  0  0  0  0  0  0  0
   -7.1930    6.7500    8.7820 C   0  0  0  0  0  0  0  0  0  0  0  0
   -8.4240    6.1170    8.7580 C   0  0  0  0  0  0  0  0  0  0  0  0
   -9.3950    6.3570    9.7450 N   0  0  0  0  0  0  0  0  0  0  0  0
  -10.5620    5.6840    9.7600 C   0  0  0  0  0  0  0  0  0  0  0  0
  -11.5770    5.6820   10.5960 N   0  0  0  0  0  0  0  0  0  0  0  0
  -12.4690    4.7490   10.1080 N   0  0  0  0  0  0  0  0  0  0  0  0
  -12.0160    4.1880    8.9920 N   0  0  0  0  0  0  0  0  0  0  0  0
  -10.8400    4.7900    8.7610 N   0  0  0  0  0  0  0  0  0  0  0  0
   -9.9950    4.4790    7.6090 C   0  0  0  0  0  0  0  0  0  0  0  0
   -8.6630    5.2070    7.7200 C   0  0  0  0  0  0  0  0  0  0  0  0
  -10.7490    4.8610    6.3730 C   0  0  0  0  0  0  0  0  0  0  0  0
  -11.0350    6.2020    6.1170 C   0  0  0  0  0  0  0  0  0  0  0  0
  -11.7370    6.5580    4.9650 C   0  0  0  0  0  0  0  0  0  0  0  0
  -12.1550    5.5730    4.0710 C   0  0  0  0  0  0  0  0  0  0  0  0
  -11.8700    4.2310    4.3270 C   0  0  0  0  0  0  0  0  0  0  0  0
  -11.1660    3.8760    5.4790 C   0  0  0  0  0  0  0  0  0  0  0  0
  -12.0160    7.8660    4.7150 O   0  0  0  0  0  0  0  0  0  0  0  0
   -6.8990    7.6510    9.7710 O   0  0  0  0  0  0  0  0  0  0  0  0
   -6.8093    3.1555    5.2985 N   0  0  0  0  0  0  0  0  0  0  0  0
   -7.2921    2.4356    4.2931 N   0  0  0  0  0  0  0  0  0  0  0  0
   -8.5528    2.8561    4.0777 C   0  0  0  0  0  0  0  0  0  0  0  0
   -9.6042    2.2318    2.7640 S   0  0  0  0  0  0  0  0  0  0  0  0
  -10.3174    0.9097    3.8038 C   0  0  0  0  0  0  0  0  0  0  0  0
  -11.4165    0.2007    3.0651 C   0  0  0  0  0  0  0  0  0  0  0  0
  -11.1984   -0.2221    1.8958 O   0  0  0  0  0  0  0  0  0  0  0  0
  -12.7032   -0.0073    3.6632 N   0  0  0  0  0  0  0  0  0  0  0  0
  -12.8451   -0.4048    5.0654 C   0  0  0  0  0  0  0  0  0  0  0  0
  -13.4443   -1.8122    5.1492 C   0  0  0  0  0  0  0  0  0  0  0  0
  -14.5453   -2.0535    4.1392 C   0  0  0  0  0  0  0  0  0  0  0  0
  -15.3525   -3.1901    4.2815 C   0  0  0  0  0  0  0  0  0  0  0  0
  -16.3838   -3.4734    3.3758 C   0  0  0  0  0  0  0  0  0  0  0  0
  -17.1446   -4.6309    3.6319 O   0  0  0  0  0  0  0  0  0  0  0  0
  -18.2277   -5.1233    2.8451 C   0  0  0  0  0  0  0  0  0  0  0  0
  -16.6000   -2.6078    2.2761 C   0  0  0  0  0  0  0  0  0  0  0  0
  -17.6161   -2.8896    1.3513 O   0  0  0  0  0  0  0  0  0  0  0  0
  -17.8702   -2.1486    0.1600 C   0  0  0  0  0  0  0  0  0  0  0  0
  -15.7811   -1.4690    2.1300 C   0  0  0  0  0  0  0  0  0  0  0  0
  -14.7533   -1.1892    3.0396 C   0  0  0  0  0  0  0  0  0  0  0  0
  -13.9266    0.0594    2.8589 C   0  0  0  0  0  0  0  0  0  0  0  0
   -8.8901    3.8337    4.9372 N   0  0  0  0  0  0  0  0  0  0  0  0
  -10.0569    4.6179    4.9072 N   0  0  0  0  0  0  0  0  0  0  0  0
  1  3  4  0
  1 14  4  0
  1  2  1  0
  3  4  4  0
  4  5  4  0
  5  6  4  0
  5 22  1  0
  6  7  1  0
  6 14  4  0
  7  8  1  0
  8  9  4  0
  8 12  4  0
  9 10  4  0
 10 11  4  0
 11 12  4  0
 12 13  1  0
 13 14  1  0
 13 15  1  6
 15 16  4  0
 15 20  4  0
 16 17  4  0
 17 18  4  0
 17 21  1  0
 18 19  4  0
 19 20  4  0
 23 24  4  0
 24 25  4  0
 25 26  1  0
 26 27  1  0
 27 28  1  0
 28 29  2  0
 28 30  1  0
 30 31  1  0
 31 32  1  0
 32 33  1  0
 33 34  4  0
 34 35  4  0
 35 36  1  0
 36 37  1  0
 35 38  4  0
 38 39  1  0
 39 40  1  0
 38 41  4  0
 41 42  4  0
 42 43  1  0
 25 44  4  0
 44 45  1  0
 43 30  1  0
 42 33  4  0
  2 23  4  0
  2 44  4  0
M  END
$$$$

     RDKit          3D

 47 53  0  0  0  0  0  0  0  0999 V2000
   -7.6410    4.9930    6.8080 C   0  0  0  0  0  0  0  0  0  1  0  0
   -7.7310    4.0530    5.7140 C   0  0  0  0  0  0  0  0  0  2  0  0
   -6.4520    5.6300    6.8680 N   0  0  0  0  0  0  0  0  0  0  0  0
   -6.2260    6.5240    7.8670 N   0  0  0  0  0  0  0  0  0  0  0  0
   -7.1930    6.7500    8.7820 C   0  0  0  0  0  0  0  0  0  0  0  0
   -8.4240    6.1170    8.7580 C   0  0  0  0  0  0  0  0  0  0  0  0
   -9.3950    6.3570    9.7450 N   0  0  0  0  0  0  0  0  0  0  0  0
  -10.5620    5.6840    9.7600 C   0  0  0  0  0  0  0  0  0  0  0  0
  -11.5770    5.6820   10.5960 N   0  0  0  0  0  0  0  0  0  0  0  0
  -12.4690    4.7490   10.1080 N   0  0  0  0  0  0  0  0  0  0  0  0
  -12.0160    4.1880    8.9920 N   0  0  0  0  0  0  0  0  0  0  0  0
  -10.8400    4.7900    8.7610 N   0  0  0  0  0  0  0  0  0  0  0  0
   -9.9950    4.4790    7.6090 C   0  0  0  0  0  0  0  0  0  0  0  0
   -8.6630    5.2070    7.7200 C   0  0  0  0  0  0  0  0  0  0  0  0
  -10.7490    4.8610    6.3730 C   0  0  0  0  0  0  0  0  0  0  0  0
  -11.0350    6.2020    6.1170 C   0  0  0  0  0  0  0  0  0  0  0  0
  -11.7370    6.5580    4.9650 C   0  0  0  0  0  0  0  0  0  0  0  0
  -12.1550    5.5730    4.0710 C   0  0  0  0  0  0  0  0  0  0  0  0
  -11.8700    4.2310    4.3270 C   0  0  0  0  0  0  0  0  0  0  0  0
  -11.1660    3.8760    5.4790 C   0  0  0  0  0  0  0  0  0  0  0  0
  -12.0160    7.8660    4.7150 O   0  0  0  0  0  0  0  0  0  0  0  0
   -6.8990    7.6510    9.7710 O   0  0  0  0  0  0  0  0  0  0  0  0
   -6.8184    3.1350    5.3327 N   0  0  0  0  0  0  0  0  0  0  0  0
   -7.2635    2.4510    4.2909 N   0  0  0  0  0  0  0  0  0  0  0  0
   -6.4876    1.4242    3.6035 C   0  0  0  0  0  0  0  0  0  0  0  0
   -6.7215    0.0825    4.2410 C   0  0  0  0  0  0  0  0  0  0  0  0
   -7.9251   -0.6059    4.0130 C   0  0  0  0  0  0  0  0  0  0  0  0
   -8.1381   -1.8616    4.5894 C   0  0  0  0  0  0  0  0  0  0  0  0
   -7.1550   -2.4355    5.4008 C   0  0  0  0  0  0  0  0  0  0  0  0
   -5.9585   -1.7525    5.6399 C   0  0  0  0  0  0  0  0  0  0  0  0
   -5.7409   -0.4979    5.0631 C   0  0  0  0  0  0  0  0  0  0  0  0
   -8.5022    2.8616    3.9618 C   0  0  0  0  0  0  0  0  0  0  0  0
   -8.8768    3.8580    4.8404 C   0  0  0  0  0  0  0  0  0  0  0  0
  -10.0514    4.7770    4.6671 C   0  0  0  0  0  0  0  0  0  0  0  0
   -9.6661    5.9133    3.8986 O   0  0  0  0  0  0  0  0  0  0  0  0
   -9.4596    5.8694    2.5165 C   0  0  0  0  0  0  0  0  0  0  0  0
   -9.8131    4.8630    1.8454 O   0  0  0  0  0  0  0  0  0  0  0  0
   -8.7862    7.0161    1.8350 C   0  0  0  0  0  0  0  0  0  0  0  0
   -7.3210    6.6785    1.5429 C   0  0  0  0  0  0  0  0  0  0  0  0
   -6.6527    7.7985    0.8814 N   0  0  0  0  0  0  0  0  0  0  0  0
   -5.2756    7.7248    0.4856 C   0  0  0  0  0  0  0  0  0  0  0  0
   -4.6084    6.6809    0.7218 O   0  0  0  0  0  0  0  0  0  0  0  0
   -4.6108    8.8785   -0.2301 C   0  0  0  0  0  0  0  0  0  0  0  0
   -5.2583    9.1486   -1.5920 C   0  0  0  0  0  0  0  0  0  0  0  0
   -6.1080   10.3970   -1.4244 C   0  0  0  0  0  0  0  0  0  0  0  0
   -5.4714   11.1866   -0.2923 C   0  0  0  0  0  0  0  0  0  0  0  0
   -4.7042   10.1857    0.5702 C   0  0  0  0  0  0  0  0  0  0  0  0
  1  3  4  0
  1 14  4  0
  1  2  1  0
  3  4  4  0
  4  5  4  0
  5  6  4  0
  5 22  1  0
  6  7  1  0
  6 14  4  0
  7  8  1  0
  8  9  4  0
  8 12  4  0
  9 10  4  0
 10 11  4  0
 11 12  4  0
 12 13  1  0
 13 14  1  0
 13 15  1  6
 15 16  4  0
 15 20  4  0
 16 17  4  0
 17 18  4  0
 17 21  1  0
 18 19  4  0
 19 20  4  0
 23 24  4  0
 24 25  1  0
 25 26  1  0
 26 27  4  0
 27 28  4  0
 28 29  4  0
 29 30  4  0
 30 31  4  0
 24 32  4  0
 32 33  4  0
 33 34  1  0
 34 35  1  0
 35 36  1  0
 36 37  2  0
 36 38  1  0
 38 39  1  0
 39 40  1  0
 40 41  1  0
 41 42  2  0
 41 43  1  0
 43 44  1  0
 44 45  1  0
 45 46  1  0
 46 47  1  0
 47 43  1  0
 31 26  4  0
  2 23  4  0
  2 33  4  0
M  END
$$$$

     RDKit          3D

 47 53  0  0  0  0  0  0  0  0999 V2000
   -7.6410    4.9930    6.8080 C   0  0  0  0  0  0  0  0  0  1  0  0
   -7.7310    4.0530    5.7140 C   0  0  0  0  0  0  0  0  0  2  0  0
   -6.4520    5.6300    6.8680 N   0  0  0  0  0  0  0  0  0  0  0  0
   -6.2260    6.5240    7.8670 N   0  0  0  0  0  0  0  0  0  0  0  0
   -7.1930    6.7500    8.7820 C   0  0  0  0  0  0  0  0  0  0  0  0
   -8.4240    6.1170    8.7580 C   0  0  0  0  0  0  0  0  0  0  0  0
   -9.3950    6.3570    9.7450 N   0  0  0  0  0  0  0  0  0  0  0  0
  -10.5620    5.6840    9.7600 C   0  0  0  0  0  0  0  0  0  0  0  0
  -11.5770    5.6820   10.5960 N   0  0  0  0  0  0  0  0  0  0  0  0
  -12.4690    4.7490   10.1080 N   0  0  0  0  0  0  0  0  0  0  0  0
  -12.0160    4.1880    8.9920 N   0  0  0  0  0  0  0  0  0  0  0  0
  -10.8400    4.7900    8.7610 N   0  0  0  0  0  0  0  0  0  0  0  0
   -9.9950    4.4790    7.6090 C   0  0  0  0  0  0  0  0  0  0  0  0
   -8.6630    5.2070    7.7200 C   0  0  0  0  0  0  0  0  0  0  0  0
  -10.7490    4.8610    6.3730 C   0  0  0  0  0  0  0  0  0  0  0  0
  -11.0350    6.2020    6.1170 C   0  0  0  0  0  0  0  0  0  0  0  0
  -11.7370    6.5580    4.9650 C   0  0  0  0  0  0  0  0  0  0  0  0
  -12.1550    5.5730    4.0710 C   0  0  0  0  0  0  0  0  0  0  0  0
  -11.8700    4.2310    4.3270 C   0  0  0  0  0  0  0  0  0  0  0  0
  -11.1660    3.8760    5.4790 C   0  0  0  0  0  0  0  0  0  0  0  0
  -12.0160    7.8660    4.7150 O   0  0  0  0  0  0  0  0  0  0  0  0
   -6.8990    7.6510    9.7710 O   0  0  0  0  0  0  0  0  0  0  0  0
   -6.7617    3.2498    5.2348 N   0  0  0  0  0  0  0  0  0  0  0  0
   -7.2333    2.4634    4.2816 N   0  0  0  0  0  0  0  0  0  0  0  0
   -6.4287    1.4688    3.5795 C   0  0  0  0  0  0  0  0  0  0  0  0
   -6.2987    0.2266    4.4179 C   0  0  0  0  0  0  0  0  0  0  0  0
   -7.4118   -0.6074    4.6169 C   0  0  0  0  0  0  0  0  0  0  0  0
   -7.2963   -1.7605    5.4004 C   0  0  0  0  0  0  0  0  0  0  0  0
   -6.0721   -2.0857    5.9929 C   0  0  0  0  0  0  0  0  0  0  0  0
   -4.9616   -1.2597    5.8031 C   0  0  0  0  0  0  0  0  0  0  0  0
   -5.0717   -0.1067    5.0186 C   0  0  0  0  0  0  0  0  0  0  0  0
   -8.5476    2.6881    4.1039 C   0  0  0  0  0  0  0  0  0  0  0  0
   -8.9360    3.6879    4.9742 C   0  0  0  0  0  0  0  0  0  0  0  0
  -10.3154    4.2757    5.0922 C   0  0  0  0  0  0  0  0  0  0  0  0
  -11.0038    4.2013    3.8444 O   0  0  0  0  0  0  0  0  0  0  0  0
  -10.6504    4.9662    2.7276 C   0  0  0  0  0  0  0  0  0  0  0  0
   -9.8005    5.8936    2.8334 O   0  0  0  0  0  0  0  0  0  0  0  0
  -11.2750    4.6334    1.4016 C   0  0  0  0  0  0  0  0  0  0  0  0
  -10.8424    5.5674    0.2619 C   0  0  0  0  0  0  0  0  0  0  0  0
  -11.4056    6.9060    0.4323 N   0  0  0  0  0  0  0  0  0  0  0  0
  -12.7689    7.2128    0.1028 C   0  0  0  0  0  0  0  0  0  0  0  0
  -13.5580    6.2857   -0.2306 O   0  0  0  0  0  0  0  0  0  0  0  0
  -13.2541    8.6440    0.1737 C   0  0  0  0  0  0  0  0  0  0  0  0
  -12.4376    9.5739   -0.7137 C   0  0  0  0  0  0  0  0  0  0  0  0
  -13.3377   10.7739   -0.9747 C   0  0  0  0  0  0  0  0  0  0  0  0
  -14.7752   10.2894   -0.7856 C   0  0  0  0  0  0  0  0  0  0  0  0
  -14.6954    8.8458   -0.2959 C   0  0  0  0  0  0  0  0  0  0  0  0
  1  3  4  0
  1 14  4  0
  1  2  1  0
  3  4  4  0
  4  5  4  0
  5  6  4  0
  5 22  1  0
  6  7  1  0
  6 14  4  0
  7  8  1  0
  8  9  4  0
  8 12  4  0
  9 10  4  0
 10 11  4  0
 11 12  4  0
 12 13  1  0
 13 14  1  0
 13 15  1  6
 15 16  4  0
 15 20  4  0
 16 17  4  0
 17 18  4  0
 17 21  1  0
 18 19  4  0
 19 20  4  0
 23 24  4  0
 24 25  1  0
 25 26  1  0
 26 27  4  0
 27 28  4  0
 28 29  4  0
 29 30  4  0
 30 31  4  0
 24 32  4  0
 32 33  4  0
 33 34  1  0
 34 35  1  0
 35 36  1  0
 36 37  2  0
 36 38  1  0
 38 39  1  0
 39 40  1  0
 40 41  1  0
 41 42  2  0
 41 43  1  0
 43 44  1  0
 44 45  1  0
 45 46  1  0
 46 47  1  0
 47 43  1  0
 31 26  4  0
  2 23  4  0
  2 33  4  0
M  END
$$$$

     RDKit          3D

 48 54  0  0  0  0  0  0  0  0999 V2000
   -7.6410    4.9930    6.8080 C   0  0  0  0  0  0  0  0  0  1  0  0
   -7.7310    4.0530    5.7140 C   0  0  0  0  0  0  0  0  0  2  0  0
   -6.4520    5.6300    6.8680 N   0  0  0  0  0  0  0  0  0  0  0  0
   -6.2260    6.5240    7.8670 N   0  0  0  0  0  0  0  0  0  0  0  0
   -7.1930    6.7500    8.7820 C   0  0  0  0  0  0  0  0  0  0  0  0
   -8.4240    6.1170    8.7580 C   0  0  0  0  0  0  0  0  0  0  0  0
   -9.3950    6.3570    9.7450 N   0  0  0  0  0  0  0  0  0  0  0  0
  -10.5620    5.6840    9.7600 C   0  0  0  0  0  0  0  0  0  0  0  0
  -11.5770    5.6820   10.5960 N   0  0  0  0  0  0  0  0  0  0  0  0
  -12.4690    4.7490   10.1080 N   0  0  0  0  0  0  0  0  0  0  0  0
  -12.0160    4.1880    8.9920 N   0  0  0  0  0  0  0  0  0  0  0  0
  -10.8400    4.7900    8.7610 N   0  0  0  0  0  0  0  0  0  0  0  0
   -9.9950    4.4790    7.6090 C   0  0  0  0  0  0  0  0  0  0  0  0
   -8.6630    5.2070    7.7200 C   0  0  0  0  0  0  0  0  0  0  0  0
  -10.7490    4.8610    6.3730 C   0  0  0  0  0  0  0  0  0  0  0  0
  -11.0350    6.2020    6.1170 C   0  0  0  0  0  0  0  0  0  0  0  0
  -11.7370    6.5580    4.9650 C   0  0  0  0  0  0  0  0  0  0  0  0
  -12.1550    5.5730    4.0710 C   0  0  0  0  0  0  0  0  0  0  0  0
  -11.8700    4.2310    4.3270 C   0  0  0  0  0  0  0  0  0  0  0  0
  -11.1660    3.8760    5.4790 C   0  0  0  0  0  0  0  0  0  0  0  0
  -12.0160    7.8660    4.7150 O   0  0  0  0  0  0  0  0  0  0  0  0
   -6.8990    7.6510    9.7710 O   0  0  0  0  0  0  0  0  0  0  0  0
   -6.8204    2.9996    5.5032 C   0  0  0  0  0  0  0  0  0  0  0  0
   -6.9504    2.0488    4.4830 C   0  0  0  0  0  0  0  0  0  0  0  0
   -5.9583    1.0155    4.3515 N   0  0  0  0  0  0  0  0  0  0  0  0
   -5.5729    0.4226    3.1003 C   0  0  0  0  0  0  0  0  0  0  0  0
   -5.9158    0.9579    2.0113 O   0  0  0  0  0  0  0  0  0  0  0  0
   -4.7590   -0.8455    3.0876 C   0  0  0  0  0  0  0  0  0  0  0  0
   -5.6247   -2.0475    2.7036 C   0  0  0  0  0  0  0  0  0  0  0  0
   -3.6041   -0.7178    2.1901 N   0  0  0  0  0  0  0  0  0  0  0  0
   -3.5797   -0.6305    0.7589 C   0  0  0  0  0  0  0  0  0  0  0  0
   -4.6008   -0.6569    0.0226 O   0  0  0  0  0  0  0  0  0  0  0  0
   -2.2029   -0.5272    0.2892 C   0  0  0  0  0  0  0  0  0  0  0  0
   -1.6896   -0.4179   -1.0006 C   0  0  0  0  0  0  0  0  0  0  0  0
   -0.2942   -0.3371   -1.1525 C   0  0  0  0  0  0  0  0  0  0  0  0
    0.5593   -0.3755   -0.0217 C   0  0  0  0  0  0  0  0  0  0  0  0
    2.0436   -0.2491   -0.1974 C   0  0  0  0  0  0  0  0  0  0  0  0
    0.0062   -0.4693    1.2737 C   0  0  0  0  0  0  0  0  0  0  0  0
   -1.3794   -0.5509    1.3935 C   0  0  0  0  0  0  0  0  0  0  0  0
   -2.2263   -0.6672    2.5746 C   0  0  0  0  0  0  0  0  0  0  0  0
   -1.8189   -0.7132    3.7657 O   0  0  0  0  0  0  0  0  0  0  0  0
   -8.0833    2.0858    3.6553 C   0  0  0  0  0  0  0  0  0  0  0  0
   -9.0484    3.0811    3.8210 C   0  0  0  0  0  0  0  0  0  0  0  0
   -8.9084    4.0553    4.8284 C   0  0  0  0  0  0  0  0  0  0  0  0
   -9.8445    5.0915    4.9975 O   0  0  0  0  0  0  0  0  0  0  0  0
  -11.0252    5.2773    4.2203 C   0  0  0  0  0  0  0  0  0  0  0  0
  -10.6993    5.4739    2.8903 F   0  0  0  0  0  0  0  0  0  0  0  0
  -11.8628    4.1843    4.3499 F   0  0  0  0  0  0  0  0  0  0  0  0
  1  3  4  0
  1 14  4  0
  1  2  1  0
  3  4  4  0
  4  5  4  0
  5  6  4  0
  5 22  1  0
  6  7  1  0
  6 14  4  0
  7  8  1  0
  8  9  4  0
  8 12  4  0
  9 10  4  0
 10 11  4  0
 11 12  4  0
 12 13  1  0
 13 14  1  0
 13 15  1  6
 15 16  4  0
 15 20  4  0
 16 17  4  0
 17 18  4  0
 17 21  1  0
 18 19  4  0
 19 20  4  0
 23 24  4  0
 24 25  1  0
 25 26  1  0
 26 27  2  0
 26 28  1  0
 28 29  1  0
 28 30  1  0
 30 31  1  0
 31 32  2  0
 31 33  1  0
 33 34  4  0
 34 35  4  0
 35 36  4  0
 36 37  1  0
 36 38  4  0
 38 39  4  0
 39 40  1  0
 40 41  2  0
 24 42  4  0
 42 43  4  0
 43 44  4  0
 44 45  1  0
 45 46  1  0
 46 47  1  0
 46 48  1  0
 40 30  1  0
 39 33  4  0
  2 23  4  0
  2 44  4  0
M  END
$$$$

     RDKit          3D

 39 45  0  0  0  0  0  0  0  0999 V2000
   -7.6410    4.9930    6.8080 C   0  0  0  0  0  0  0  0  0  1  0  0
   -7.7310    4.0530    5.7140 C   0  0  0  0  0  0  0  0  0  2  0  0
   -6.4520    5.6300    6.8680 N   0  0  0  0  0  0  0  0  0  0  0  0
   -6.2260    6.5240    7.8670 N   0  0  0  0  0  0  0  0  0  0  0  0
   -7.1930    6.7500    8.7820 C   0  0  0  0  0  0  0  0  0  0  0  0
   -8.4240    6.1170    8.7580 C   0  0  0  0  0  0  0  0  0  0  0  0
   -9.3950    6.3570    9.7450 N   0  0  0  0  0  0  0  0  0  0  0  0
  -10.5620    5.6840    9.7600 C   0  0  0  0  0  0  0  0  0  0  0  0
  -11.5770    5.6820   10.5960 N   0  0  0  0  0  0  0  0  0  0  0  0
  -12.4690    4.7490   10.1080 N   0  0  0  0  0  0  0  0  0  0  0  0
  -12.0160    4.1880    8.9920 N   0  0  0  0  0  0  0  0  0  0  0  0
  -10.8400    4.7900    8.7610 N   0  0  0  0  0  0  0  0  0  0  0  0
   -9.9950    4.4790    7.6090 C   0  0  0  0  0  0  0  0  0  0  0  0
   -8.6630    5.2070    7.7200 C   0  0  0  0  0  0  0  0  0  0  0  0
  -10.7490    4.8610    6.3730 C   0  0  0  0  0  0  0  0  0  0  0  0
  -11.0350    6.2020    6.1170 C   0  0  0  0  0  0  0  0  0  0  0  0
  -11.7370    6.5580    4.9650 C   0  0  0  0  0  0  0  0  0  0  0  0
  -12.1550    5.5730    4.0710 C   0  0  0  0  0  0  0  0  0  0  0  0
  -11.8700    4.2310    4.3270 C   0  0  0  0  0  0  0  0  0  0  0  0
  -11.1660    3.8760    5.4790 C   0  0  0  0  0  0  0  0  0  0  0  0
  -12.0160    7.8660    4.7150 O   0  0  0  0  0  0  0  0  0  0  0  0
   -6.8990    7.6510    9.7710 O   0  0  0  0  0  0  0  0  0  0  0  0
   -8.7946    3.9084    4.7291 C   0  0  0  0  0  0  0  0  0  0  0  0
   -9.9984    4.7858    4.6020 C   0  0  0  0  0  0  0  0  0  0  0  0
   -8.5343    2.8862    3.8777 N   0  0  0  0  0  0  0  0  0  0  0  0
   -7.3866    2.3512    4.2619 N   0  0  0  0  0  0  0  0  0  0  0  0
   -6.7302    1.3092    3.6862 C   0  0  0  0  0  0  0  0  0  0  0  0
   -7.2812    0.6517    2.5285 N   0  0  0  0  0  0  0  0  0  0  0  0
   -6.5605   -0.3305    1.7192 C   0  0  0  0  0  0  0  0  0  0  0  0
   -5.4130    0.3182    1.0085 C   0  0  0  0  0  0  0  0  0  0  0  0
   -4.0785   -0.0561    1.0981 C   0  0  0  0  0  0  0  0  0  0  0  0
   -3.2313    0.7371    0.3153 C   0  0  0  0  0  0  0  0  0  0  0  0
   -3.8946    1.7305   -0.3939 C   0  0  0  0  0  0  0  0  0  0  0  0
   -5.5367    1.6224   -0.0459 S   0  0  0  0  0  0  0  0  0  0  0  0
   -5.5082    0.9137    4.2699 C   0  0  0  0  0  0  0  0  0  0  0  0
   -5.0310    1.6087    5.4029 C   0  0  0  0  0  0  0  0  0  0  0  0
   -3.7263    1.2249    6.0245 C   0  0  0  0  0  0  0  0  0  0  0  0
   -5.7415    2.6547    5.9164 N   0  0  0  0  0  0  0  0  0  0  0  0
   -6.9111    3.0034    5.3291 C   0  0  0  0  0  0  0  0  0  0  0  0
  1  3  4  0
  1 14  4  0
  1  2  1  0
  3  4  4  0
  4  5  4  0
  5  6  4  0
  5 22  1  0
  6  7  1  0
  6 14  4  0
  7  8  1  0
  8  9  4  0
  8 12  4  0
  9 10  4  0
 10 11  4  0
 11 12  4  0
 12 13  1  0
 13 14  1  0
 13 15  1  6
 15 16  4  0
 15 20  4  0
 16 17  4  0
 17 18  4  0
 17 21  1  0
 18 19  4  0
 19 20  4  0
 23 24  1  0
 23 25  4  0
 25 26  4  0
 26 27  4  0
 27 28  1  0
 28 29  1  0
 29 30  1  0
 30 31  4  0
 31 32  4  0
 32 33  4  0
 33 34  4  0
 27 35  4  0
 35 36  4  0
 36 37  1  0
 36 38  4  0
 38 39  4  0
 39 26  4  0
 34 30  4  0
  2 23  4  0
  2 39  4  0
M  END
$$$$

     RDKit          3D

 39 45  0  0  0  0  0  0  0  0999 V2000
   -7.6410    4.9930    6.8080 C   0  0  0  0  0  0  0  0  0  1  0  0
   -7.7310    4.0530    5.7140 C   0  0  0  0  0  0  0  0  0  2  0  0
   -6.4520    5.6300    6.8680 N   0  0  0  0  0  0  0  0  0  0  0  0
   -6.2260    6.5240    7.8670 N   0  0  0  0  0  0  0  0  0  0  0  0
   -7.1930    6.7500    8.7820 C   0  0  0  0  0  0  0  0  0  0  0  0
   -8.4240    6.1170    8.7580 C   0  0  0  0  0  0  0  0  0  0  0  0
   -9.3950    6.3570    9.7450 N   0  0  0  0  0  0  0  0  0  0  0  0
  -10.5620    5.6840    9.7600 C   0  0  0  0  0  0  0  0  0  0  0  0
  -11.5770    5.6820   10.5960 N   0  0  0  0  0  0  0  0  0  0  0  0
  -12.4690    4.7490   10.1080 N   0  0  0  0  0  0  0  0  0  0  0  0
  -12.0160    4.1880    8.9920 N   0  0  0  0  0  0  0  0  0  0  0  0
  -10.8400    4.7900    8.7610 N   0  0  0  0  0  0  0  0  0  0  0  0
   -9.9950    4.4790    7.6090 C   0  0  0  0  0  0  0  0  0  0  0  0
   -8.6630    5.2070    7.7200 C   0  0  0  0  0  0  0  0  0  0  0  0
  -10.7490    4.8610    6.3730 C   0  0  0  0  0  0  0  0  0  0  0  0
  -11.0350    6.2020    6.1170 C   0  0  0  0  0  0  0  0  0  0  0  0
  -11.7370    6.5580    4.9650 C   0  0  0  0  0  0  0  0  0  0  0  0
  -12.1550    5.5730    4.0710 C   0  0  0  0  0  0  0  0  0  0  0  0
  -11.8700    4.2310    4.3270 C   0  0  0  0  0  0  0  0  0  0  0  0
  -11.1660    3.8760    5.4790 C   0  0  0  0  0  0  0  0  0  0  0  0
  -12.0160    7.8660    4.7150 O   0  0  0  0  0  0  0  0  0  0  0  0
   -6.8990    7.6510    9.7710 O   0  0  0  0  0  0  0  0  0  0  0  0
   -8.7965    3.9057    4.7314 C   0  0  0  0  0  0  0  0  0  0  0  0
  -10.0011    4.7819    4.6045 C   0  0  0  0  0  0  0  0  0  0  0  0
   -8.5389    2.8795    3.8839 N   0  0  0  0  0  0  0  0  0  0  0  0
   -7.3899    2.3463    4.2665 N   0  0  0  0  0  0  0  0  0  0  0  0
   -6.7415    1.2928    3.7020 C   0  0  0  0  0  0  0  0  0  0  0  0
   -7.2978    0.6233    2.5550 N   0  0  0  0  0  0  0  0  0  0  0  0
   -6.6485   -0.5168    1.9051 C   0  0  0  0  0  0  0  0  0  0  0  0
   -7.4699   -1.0147    0.7559 C   0  0  0  0  0  0  0  0  0  0  0  0
   -8.7289   -1.5938    0.8470 C   0  0  0  0  0  0  0  0  0  0  0  0
   -9.2545   -1.9648   -0.3963 C   0  0  0  0  0  0  0  0  0  0  0  0
   -8.4129   -1.6807   -1.4647 C   0  0  0  0  0  0  0  0  0  0  0  0
   -7.0138   -0.9674   -0.8616 S   0  0  0  0  0  0  0  0  0  0  0  0
   -5.5194    0.8973    4.2861 C   0  0  0  0  0  0  0  0  0  0  0  0
   -5.0367    1.6009    5.4117 C   0  0  0  0  0  0  0  0  0  0  0  0
   -3.7447    1.2005    6.0492 C   0  0  0  0  0  0  0  0  0  0  0  0
   -5.7461    2.6492    5.9224 N   0  0  0  0  0  0  0  0  0  0  0  0
   -6.9123    3.0018    5.3308 C   0  0  0  0  0  0  0  0  0  0  0  0
  1  3  4  0
  1 14  4  0
  1  2  1  0
  3  4  4  0
  4  5  4  0
  5  6  4  0
  5 22  1  0
  6  7  1  0
  6 14  4  0
  7  8  1  0
  8  9  4  0
  8 12  4  0
  9 10  4  0
 10 11  4  0
 11 12  4  0
 12 13  1  0
 13 14  1  0
 13 15  1  6
 15 16  4  0
 15 20  4  0
 16 17  4  0
 17 18  4  0
 17 21  1  0
 18 19  4  0
 19 20  4  0
 23 24  1  0
 23 25  4  0
 25 26  4  0
 26 27  4  0
 27 28  1  0
 28 29  1  0
 29 30  1  0
 30 31  4  0
 31 32  4  0
 32 33  4  0
 33 34  4  0
 27 35  4  0
 35 36  4  0
 36 37  1  0
 36 38  4  0
 38 39  4  0
 39 26  4  0
 34 30  4  0
  2 23  4  0
  2 39  4  0
M  END
$$$$

     RDKit          3D

 45 52  0  0  0  0  0  0  0  0999 V2000
   -7.6410    4.9930    6.8080 C   0  0  0  0  0  0  0  0  0  1  0  0
   -7.7310    4.0530    5.7140 C   0  0  0  0  0  0  0  0  0  2  0  0
   -6.4520    5.6300    6.8680 N   0  0  0  0  0  0  0  0  0  0  0  0
   -6.2260    6.5240    7.8670 N   0  0  0  0  0  0  0  0  0  0  0  0
   -7.1930    6.7500    8.7820 C   0  0  0  0  0  0  0  0  0  0  0  0
   -8.4240    6.1170    8.7580 C   0  0  0  0  0  0  0  0  0  0  0  0
   -9.3950    6.3570    9.7450 N   0  0  0  0  0  0  0  0  0  0  0  0
  -10.5620    5.6840    9.7600 C   0  0  0  0  0  0  0  0  0  0  0  0
  -11.5770    5.6820   10.5960 N   0  0  0  0  0  0  0  0  0  0  0  0
  -12.4690    4.7490   10.1080 N   0  0  0  0  0  0  0  0  0  0  0  0
  -12.0160    4.1880    8.9920 N   0  0  0  0  0  0  0  0  0  0  0  0
  -10.8400    4.7900    8.7610 N   0  0  0  0  0  0  0  0  0  0  0  0
   -9.9950    4.4790    7.6090 C   0  0  0  0  0  0  0  0  0  0  0  0
   -8.6630    5.2070    7.7200 C   0  0  0  0  0  0  0  0  0  0  0  0
  -10.7490    4.8610    6.3730 C   0  0  0  0  0  0  0  0  0  0  0  0
  -11.0350    6.2020    6.1170 C   0  0  0  0  0  0  0  0  0  0  0  0
  -11.7370    6.5580    4.9650 C   0  0  0  0  0  0  0  0  0  0  0  0
  -12.1550    5.5730    4.0710 C   0  0  0  0  0  0  0  0  0  0  0  0
  -11.8700    4.2310    4.3270 C   0  0  0  0  0  0  0  0  0  0  0  0
  -11.1660    3.8760    5.4790 C   0  0  0  0  0  0  0  0  0  0  0  0
  -12.0160    7.8660    4.7150 O   0  0  0  0  0  0  0  0  0  0  0  0
   -6.8990    7.6510    9.7710 O   0  0  0  0  0  0  0  0  0  0  0  0
   -8.8374    3.9073    4.7833 C   0  0  0  0  0  0  0  0  0  0  0  0
   -9.9589    4.7002    4.5700 C   0  0  0  0  0  0  0  0  0  0  0  0
  -10.1339    5.7535    5.2421 O   0  0  0  0  0  0  0  0  0  0  0  0
  -10.8526    4.3263    3.5964 N   0  0  0  0  0  0  0  0  0  0  0  0
  -12.0400    5.1578    3.3360 C   0  0  0  0  0  0  0  0  0  0  0  0
  -10.7001    3.1200    2.9394 C   0  0  0  0  0  0  0  0  0  0  0  0
  -11.5876    2.7367    2.1244 O   0  0  0  0  0  0  0  0  0  0  0  0
   -9.6056    2.3157    3.1781 N   0  0  0  0  0  0  0  0  0  0  0  0
   -9.6342    0.9197    2.7175 C   0  0  0  0  0  0  0  0  0  0  0  0
   -8.6164    2.8035    3.9916 C   0  0  0  0  0  0  0  0  0  0  0  0
   -7.3604    2.2955    4.3589 C   0  0  0  0  0  0  0  0  0  0  0  0
   -6.5022    1.3428    3.7689 C   0  0  0  0  0  0  0  0  0  1  0  0
   -6.6326    0.8806    2.3705 C   0  0  0  0  0  0  0  0  0  2  0  0
   -6.5217   -0.4854    2.0590 C   0  0  0  0  0  0  0  0  0  0  0  0
   -6.6079   -0.9137    0.7307 C   0  0  0  0  0  0  0  0  0  0  0  0
   -6.7876    0.0175   -0.2958 C   0  0  0  0  0  0  0  0  0  0  0  0
   -6.8763    1.3798    0.0032 C   0  0  0  0  0  0  0  0  0  0  0  0
   -6.7935    1.8130    1.3300 C   0  0  0  0  0  0  0  0  0  0  0  0
   -5.3172    1.0352    4.4648 C   0  0  0  0  0  0  0  0  0  0  0  0
   -4.9855    1.7276    5.6423 C   0  0  0  0  0  0  0  0  0  0  0  0
   -3.6992    1.4513    6.3520 C   0  0  0  0  0  0  0  0  0  0  0  0
   -5.7856    2.7421    6.0657 N   0  0  0  0  0  0  0  0  0  0  0  0
   -6.9175    3.0091    5.4175 N   0  0  0  0  0  0  0  0  0  0  0  0
  1  3  4  0
  1 14  4  0
  1  2  1  0
  3  4  4  0
  4  5  4  0
  5  6  4  0
  5 22  1  0
  6  7  1  0
  6 14  4  0
  7  8  1  0
  8  9  4  0
  8 12  4  0
  9 10  4  0
 10 11  4  0
 11 12  4  0
 12 13  1  0
 13 14  1  0
 13 15  1  6
 15 16  4  0
 15 20  4  0
 16 17  4  0
 17 18  4  0
 17 21  1  0
 18 19  4  0
 19 20  4  0
 23 24  4  0
 24 25  2  0
 24 26  4  0
 26 27  1  0
 26 28  4  0
 28 29  2  0
 28 30  4  0
 30 31  1  0
 30 32  4  0
 32 33  4  0
 33 34  4  0
 34 35  1  0
 35 36  4  0
 36 37  4  0
 37 38  4  0
 38 39  4  0
 39 40  4  0
 34 41  4  0
 41 42  4  0
 42 43  1  0
 42 44  4  0
 44 45  4  0
 32 23  4  0
 45 33  4  0
 40 35  4  0
  2 23  4  0
  2 45  4  0
M  END
$$$$

     RDKit          3D

 45 52  0  0  0  0  0  0  0  0999 V2000
   -7.6410    4.9930    6.8080 C   0  0  0  0  0  0  0  0  0  1  0  0
   -7.7310    4.0530    5.7140 C   0  0  0  0  0  0  0  0  0  2  0  0
   -6.4520    5.6300    6.8680 N   0  0  0  0  0  0  0  0  0  0  0  0
   -6.2260    6.5240    7.8670 N   0  0  0  0  0  0  0  0  0  0  0  0
   -7.1930    6.7500    8.7820 C   0  0  0  0  0  0  0  0  0  0  0  0
   -8.4240    6.1170    8.7580 C   0  0  0  0  0  0  0  0  0  0  0  0
   -9.3950    6.3570    9.7450 N   0  0  0  0  0  0  0  0  0  0  0  0
  -10.5620    5.6840    9.7600 C   0  0  0  0  0  0  0  0  0  0  0  0
  -11.5770    5.6820   10.5960 N   0  0  0  0  0  0  0  0  0  0  0  0
  -12.4690    4.7490   10.1080 N   0  0  0  0  0  0  0  0  0  0  0  0
  -12.0160    4.1880    8.9920 N   0  0  0  0  0  0  0  0  0  0  0  0
  -10.8400    4.7900    8.7610 N   0  0  0  0  0  0  0  0  0  0  0  0
   -9.9950    4.4790    7.6090 C   0  0  0  0  0  0  0  0  0  0  0  0
   -8.6630    5.2070    7.7200 C   0  0  0  0  0  0  0  0  0  0  0  0
  -10.7490    4.8610    6.3730 C   0  0  0  0  0  0  0  0  0  0  0  0
  -11.0350    6.2020    6.1170 C   0  0  0  0  0  0  0  0  0  0  0  0
  -11.7370    6.5580    4.9650 C   0  0  0  0  0  0  0  0  0  0  0  0
  -12.1550    5.5730    4.0710 C   0  0  0  0  0  0  0  0  0  0  0  0
  -11.8700    4.2310    4.3270 C   0  0  0  0  0  0  0  0  0  0  0  0
  -11.1660    3.8760    5.4790 C   0  0  0  0  0  0  0  0  0  0  0  0
  -12.0160    7.8660    4.7150 O   0  0  0  0  0  0  0  0  0  0  0  0
   -6.8990    7.6510    9.7710 O   0  0  0  0  0  0  0  0  0  0  0  0
   -8.8391    3.9050    4.7853 C   0  0  0  0  0  0  0  0  0  0  0  0
   -9.9627    4.6954    4.5741 C   0  0  0  0  0  0  0  0  0  0  0  0
  -10.1383    5.7488    5.2458 O   0  0  0  0  0  0  0  0  0  0  0  0
  -10.8581    4.3191    3.6029 N   0  0  0  0  0  0  0  0  0  0  0  0
  -12.0490    5.1469    3.3470 C   0  0  0  0  0  0  0  0  0  0  0  0
  -10.7041    3.1132    2.9455 C   0  0  0  0  0  0  0  0  0  0  0  0
  -11.5927    2.7275    2.1329 O   0  0  0  0  0  0  0  0  0  0  0  0
   -9.6070    2.3115    3.1817 N   0  0  0  0  0  0  0  0  0  0  0  0
   -9.6332    0.9156    2.7209 C   0  0  0  0  0  0  0  0  0  0  0  0
   -8.6174    2.8015    3.9932 C   0  0  0  0  0  0  0  0  0  0  0  0
   -7.3594    2.2962    4.3580 C   0  0  0  0  0  0  0  0  0  0  0  0
   -6.5003    1.3454    3.7665 C   0  0  0  0  0  0  0  0  0  1  0  0
   -6.6326    0.8826    2.3686 C   0  0  0  0  0  0  0  0  0  2  0  0
   -6.7956    1.8144    1.3278 C   0  0  0  0  0  0  0  0  0  0  0  0
   -6.8798    1.3806    0.0013 C   0  0  0  0  0  0  0  0  0  0  0  0
   -6.7908    0.0182   -0.2972 C   0  0  0  0  0  0  0  0  0  0  0  0
   -6.6094   -0.9125    0.7295 C   0  0  0  0  0  0  0  0  0  0  0  0
   -6.5214   -0.4836    2.0574 C   0  0  0  0  0  0  0  0  0  0  0  0
   -5.3132    1.0406    4.4598 C   0  0  0  0  0  0  0  0  0  0  0  0
   -4.9808    1.7337    5.6366 C   0  0  0  0  0  0  0  0  0  0  0  0
   -3.6922    1.4606    6.3436 C   0  0  0  0  0  0  0  0  0  0  0  0
   -5.7823    2.7463    6.0616 N   0  0  0  0  0  0  0  0  0  0  0  0
   -6.9160    3.0109    5.4157 N   0  0  0  0  0  0  0  0  0  0  0  0
  1  3  4  0
  1 14  4  0
  1  2  1  0
  3  4  4  0
  4  5  4  0
  5  6  4  0
  5 22  1  0
  6  7  1  0
  6 14  4  0
  7  8  1  0
  8  9  4  0
  8 12  4  0
  9 10  4  0
 10 11  4  0
 11 12  4  0
 12 13  1  0
 13 14  1  0
 13 15  1  6
 15 16  4  0
 15 20  4  0
 16 17  4  0
 17 18  4  0
 17 21  1  0
 18 19  4  0
 19 20  4  0
 23 24  4  0
 24 25  2  0
 24 26  4  0
 26 27  1  0
 26 28  4  0
 28 29  2  0
 28 30  4  0
 30 31  1  0
 30 32  4  0
 32 33  4  0
 33 34  4  0
 34 35  1  0
 35 36  4  0
 36 37  4  0
 37 38  4  0
 38 39  4  0
 39 40  4  0
 34 41  4  0
 41 42  4  0
 42 43  1  0
 42 44  4  0
 44 45  4  0
 32 23  4  0
 45 33  4  0
 40 35  4  0
  2 23  4  0
  2 45  4  0
M  END
$$$$

     RDKit          3D

 45 52  0  0  0  0  0  0  0  0999 V2000
   -7.6410    4.9930    6.8080 C   0  0  0  0  0  0  0  0  0  1  0  0
   -7.7310    4.0530    5.7140 C   0  0  0  0  0  0  0  0  0  2  0  0
   -6.4520    5.6300    6.8680 N   0  0  0  0  0  0  0  0  0  0  0  0
   -6.2260    6.5240    7.8670 N   0  0  0  0  0  0  0  0  0  0  0  0
   -7.1930    6.7500    8.7820 C   0  0  0  0  0  0  0  0  0  0  0  0
   -8.4240    6.1170    8.7580 C   0  0  0  0  0  0  0  0  0  0  0  0
   -9.3950    6.3570    9.7450 N   0  0  0  0  0  0  0  0  0  0  0  0
  -10.5620    5.6840    9.7600 C   0  0  0  0  0  0  0  0  0  0  0  0
  -11.5770    5.6820   10.5960 N   0  0  0  0  0  0  0  0  0  0  0  0
  -12.4690    4.7490   10.1080 N   0  0  0  0  0  0  0  0  0  0  0  0
  -12.0160    4.1880    8.9920 N   0  0  0  0  0  0  0  0  0  0  0  0
  -10.8400    4.7900    8.7610 N   0  0  0  0  0  0  0  0  0  0  0  0
   -9.9950    4.4790    7.6090 C   0  0  0  0  0  0  0  0  0  0  0  0
   -8.6630    5.2070    7.7200 C   0  0  0  0  0  0  0  0  0  0  0  0
  -10.7490    4.8610    6.3730 C   0  0  0  0  0  0  0  0  0  0  0  0
  -11.0350    6.2020    6.1170 C   0  0  0  0  0  0  0  0  0  0  0  0
  -11.7370    6.5580    4.9650 C   0  0  0  0  0  0  0  0  0  0  0  0
  -12.1550    5.5730    4.0710 C   0  0  0  0  0  0  0  0  0  0  0  0
  -11.8700    4.2310    4.3270 C   0  0  0  0  0  0  0  0  0  0  0  0
  -11.1660    3.8760    5.4790 C   0  0  0  0  0  0  0  0  0  0  0  0
  -12.0160    7.8660    4.7150 O   0  0  0  0  0  0  0  0  0  0  0  0
   -6.8990    7.6510    9.7710 O   0  0  0  0  0  0  0  0  0  0  0  0
   -6.9702    2.9247    5.3722 C   0  0  0  0  0  0  0  0  0  0  0  0
   -5.8451    2.3993    5.9975 C   0  0  0  0  0  0  0  0  0  0  0  0
   -5.3715    2.9483    7.0299 O   0  0  0  0  0  0  0  0  0  0  0  0
   -5.2711    1.2671    5.4746 N   0  0  0  0  0  0  0  0  0  0  0  0
   -4.0472    0.7203    6.0844 C   0  0  0  0  0  0  0  0  0  0  0  0
   -5.9039    0.5727    4.4615 C   0  0  0  0  0  0  0  0  0  0  0  0
   -5.4187   -0.5233    4.0590 O   0  0  0  0  0  0  0  0  0  0  0  0
   -7.0765    1.0403    3.9065 N   0  0  0  0  0  0  0  0  0  0  0  0
   -7.8960    0.1221    3.1020 C   0  0  0  0  0  0  0  0  0  0  0  0
   -7.5110    2.2868    4.2775 C   0  0  0  0  0  0  0  0  0  0  0  0
   -8.6160    3.0547    3.8764 C   0  0  0  0  0  0  0  0  0  0  0  0
   -9.4027    3.0589    2.7039 C   0  0  0  0  0  0  0  0  0  1  0  0
   -9.0000    2.3925    1.4470 C   0  0  0  0  0  0  0  0  0  2  0  0
   -9.9268    1.6261    0.7193 C   0  0  0  0  0  0  0  0  0  0  0  0
   -9.5524    1.0291   -0.4884 C   0  0  0  0  0  0  0  0  0  0  0  0
   -8.2587    1.2065   -0.9866 C   0  0  0  0  0  0  0  0  0  0  0  0
   -7.3380    1.9857   -0.2808 C   0  0  0  0  0  0  0  0  0  0  0  0
   -7.7066    2.5826    0.9286 C   0  0  0  0  0  0  0  0  0  0  0  0
  -10.4744    3.9709    2.6581 C   0  0  0  0  0  0  0  0  0  0  0  0
  -10.6661    4.8934    3.7008 C   0  0  0  0  0  0  0  0  0  0  0  0
  -11.7553    5.9146    3.6240 C   0  0  0  0  0  0  0  0  0  0  0  0
   -9.7726    4.9356    4.7245 N   0  0  0  0  0  0  0  0  0  0  0  0
   -8.7902    4.0391    4.7856 N   0  0  0  0  0  0  0  0  0  0  0  0
  1  3  4  0
  1 14  4  0
  1  2  1  0
  3  4  4  0
  4  5  4  0
  5  6  4  0
  5 22  1  0
  6  7  1  0
  6 14  4  0
  7  8  1  0
  8  9  4  0
  8 12  4  0
  9 10  4  0
 10 11  4  0
 11 12  4  0
 12 13  1  0
 13 14  1  0
 13 15  1  6
 15 16  4  0
 15 20  4  0
 16 17  4  0
 17 18  4  0
 17 21  1  0
 18 19  4  0
 19 20  4  0
 23 24  4  0
 24 25  2  0
 24 26  4  0
 26 27  1  0
 26 28  4  0
 28 29  2  0
 28 30  4  0
 30 31  1  0
 30 32  4  0
 32 33  4  0
 33 34  4  0
 34 35  1  0
 35 36  4  0
 36 37  4  0
 37 38  4  0
 38 39  4  0
 39 40  4  0
 34 41  4  0
 41 42  4  0
 42 43  1  0
 42 44  4  0
 44 45  4  0
 32 23  4  0
 45 33  4  0
 40 35  4  0
  2 23  4  0
  2 45  4  0
M  END
$$$$

     RDKit          3D

 45 52  0  0  0  0  0  0  0  0999 V2000
   -7.6410    4.9930    6.8080 C   0  0  0  0  0  0  0  0  0  1  0  0
   -7.7310    4.0530    5.7140 C   0  0  0  0  0  0  0  0  0  2  0  0
   -6.4520    5.6300    6.8680 N   0  0  0  0  0  0  0  0  0  0  0  0
   -6.2260    6.5240    7.8670 N   0  0  0  0  0  0  0  0  0  0  0  0
   -7.1930    6.7500    8.7820 C   0  0  0  0  0  0  0  0  0  0  0  0
   -8.4240    6.1170    8.7580 C   0  0  0  0  0  0  0  0  0  0  0  0
   -9.3950    6.3570    9.7450 N   0  0  0  0  0  0  0  0  0  0  0  0
  -10.5620    5.6840    9.7600 C   0  0  0  0  0  0  0  0  0  0  0  0
  -11.5770    5.6820   10.5960 N   0  0  0  0  0  0  0  0  0  0  0  0
  -12.4690    4.7490   10.1080 N   0  0  0  0  0  0  0  0  0  0  0  0
  -12.0160    4.1880    8.9920 N   0  0  0  0  0  0  0  0  0  0  0  0
  -10.8400    4.7900    8.7610 N   0  0  0  0  0  0  0  0  0  0  0  0
   -9.9950    4.4790    7.6090 C   0  0  0  0  0  0  0  0  0  0  0  0
   -8.6630    5.2070    7.7200 C   0  0  0  0  0  0  0  0  0  0  0  0
  -10.7490    4.8610    6.3730 C   0  0  0  0  0  0  0  0  0  0  0  0
  -11.0350    6.2020    6.1170 C   0  0  0  0  0  0  0  0  0  0  0  0
  -11.7370    6.5580    4.9650 C   0  0  0  0  0  0  0  0  0  0  0  0
  -12.1550    5.5730    4.0710 C   0  0  0  0  0  0  0  0  0  0  0  0
  -11.8700    4.2310    4.3270 C   0  0  0  0  0  0  0  0  0  0  0  0
  -11.1660    3.8760    5.4790 C   0  0  0  0  0  0  0  0  0  0  0  0
  -12.0160    7.8660    4.7150 O   0  0  0  0  0  0  0  0  0  0  0  0
   -6.8990    7.6510    9.7710 O   0  0  0  0  0  0  0  0  0  0  0  0
   -6.9702    2.9246    5.3722 C   0  0  0  0  0  0  0  0  0  0  0  0
   -5.8452    2.3992    5.9975 C   0  0  0  0  0  0  0  0  0  0  0  0
   -5.3715    2.9482    7.0298 O   0  0  0  0  0  0  0  0  0  0  0  0
   -5.2713    1.2667    5.4747 N   0  0  0  0  0  0  0  0  0  0  0  0
   -4.0476    0.7198    6.0844 C   0  0  0  0  0  0  0  0  0  0  0  0
   -5.9043    0.5726    4.4617 C   0  0  0  0  0  0  0  0  0  0  0  0
   -5.4193   -0.5236    4.0592 O   0  0  0  0  0  0  0  0  0  0  0  0
   -7.0768    1.0402    3.9066 N   0  0  0  0  0  0  0  0  0  0  0  0
   -7.8963    0.1220    3.1020 C   0  0  0  0  0  0  0  0  0  0  0  0
   -7.5110    2.2868    4.2775 C   0  0  0  0  0  0  0  0  0  0  0  0
   -8.6161    3.0547    3.8764 C   0  0  0  0  0  0  0  0  0  0  0  0
   -9.4030    3.0589    2.7041 C   0  0  0  0  0  0  0  0  0  1  0  0
   -9.0007    2.3924    1.4470 C   0  0  0  0  0  0  0  0  0  2  0  0
   -7.7072    2.5824    0.9286 C   0  0  0  0  0  0  0  0  0  0  0  0
   -7.3389    1.9854   -0.2809 C   0  0  0  0  0  0  0  0  0  0  0  0
   -8.2597    1.2063   -0.9865 C   0  0  0  0  0  0  0  0  0  0  0  0
   -9.5533    1.0289   -0.4881 C   0  0  0  0  0  0  0  0  0  0  0  0
   -9.9275    1.6261    0.7196 C   0  0  0  0  0  0  0  0  0  0  0  0
  -10.4748    3.9708    2.6584 C   0  0  0  0  0  0  0  0  0  0  0  0
  -10.6664    4.8934    3.7012 C   0  0  0  0  0  0  0  0  0  0  0  0
  -11.7555    5.9145    3.6246 C   0  0  0  0  0  0  0  0  0  0  0  0
   -9.7726    4.9356    4.7247 N   0  0  0  0  0  0  0  0  0  0  0  0
   -8.7902    4.0391    4.7857 N   0  0  0  0  0  0  0  0  0  0  0  0
  1  3  4  0
  1 14  4  0
  1  2  1  0
  3  4  4  0
  4  5  4  0
  5  6  4  0
  5 22  1  0
  6  7  1  0
  6 14  4  0
  7  8  1  0
  8  9  4  0
  8 12  4  0
  9 10  4  0
 10 11  4  0
 11 12  4  0
 12 13  1  0
 13 14  1  0
 13 15  1  6
 15 16  4  0
 15 20  4  0
 16 17  4  0
 17 18  4  0
 17 21  1  0
 18 19  4  0
 19 20  4  0
 23 24  4  0
 24 25  2  0
 24 26  4  0
 26 27  1  0
 26 28  4  0
 28 29  2  0
 28 30  4  0
 30 31  1  0
 30 32  4  0
 32 33  4  0
 33 34  4  0
 34 35  1  0
 35 36  4  0
 36 37  4  0
 37 38  4  0
 38 39  4  0
 39 40  4  0
 34 41  4  0
 41 42  4  0
 42 43  1  0
 42 44  4  0
 44 45  4  0
 32 23  4  0
 45 33  4  0
 40 35  4  0
  2 23  4  0
  2 45  4  0
M  END
$$$$

     RDKit          3D

 45 52  0  0  0  0  0  0  0  0999 V2000
   -7.6410    4.9930    6.8080 C   0  0  0  0  0  0  0  0  0  1  0  0
   -7.7310    4.0530    5.7140 C   0  0  0  0  0  0  0  0  0  2  0  0
   -6.4520    5.6300    6.8680 N   0  0  0  0  0  0  0  0  0  0  0  0
   -6.2260    6.5240    7.8670 N   0  0  0  0  0  0  0  0  0  0  0  0
   -7.1930    6.7500    8.7820 C   0  0  0  0  0  0  0  0  0  0  0  0
   -8.4240    6.1170    8.7580 C   0  0  0  0  0  0  0  0  0  0  0  0
   -9.3950    6.3570    9.7450 N   0  0  0  0  0  0  0  0  0  0  0  0
  -10.5620    5.6840    9.7600 C   0  0  0  0  0  0  0  0  0  0  0  0
  -11.5770    5.6820   10.5960 N   0  0  0  0  0  0  0  0  0  0  0  0
  -12.4690    4.7490   10.1080 N   0  0  0  0  0  0  0  0  0  0  0  0
  -12.0160    4.1880    8.9920 N   0  0  0  0  0  0  0  0  0  0  0  0
  -10.8400    4.7900    8.7610 N   0  0  0  0  0  0  0  0  0  0  0  0
   -9.9950    4.4790    7.6090 C   0  0  0  0  0  0  0  0  0  0  0  0
   -8.6630    5.2070    7.7200 C   0  0  0  0  0  0  0  0  0  0  0  0
  -10.7490    4.8610    6.3730 C   0  0  0  0  0  0  0  0  0  0  0  0
  -11.0350    6.2020    6.1170 C   0  0  0  0  0  0  0  0  0  0  0  0
  -11.7370    6.5580    4.9650 C   0  0  0  0  0  0  0  0  0  0  0  0
  -12.1550    5.5730    4.0710 C   0  0  0  0  0  0  0  0  0  0  0  0
  -11.8700    4.2310    4.3270 C   0  0  0  0  0  0  0  0  0  0  0  0
  -11.1660    3.8760    5.4790 C   0  0  0  0  0  0  0  0  0  0  0  0
  -12.0160    7.8660    4.7150 O   0  0  0  0  0  0  0  0  0  0  0  0
   -6.8990    7.6510    9.7710 O   0  0  0  0  0  0  0  0  0  0  0  0
   -6.9444    2.9536    5.3439 C   0  0  0  0  0  0  0  0  0  0  0  0
   -5.7901    2.4568    5.9376 C   0  0  0  0  0  0  0  0  0  0  0  0
   -5.3834    2.9299    7.0340 O   0  0  0  0  0  0  0  0  0  0  0  0
   -5.1274    1.4216    5.3238 N   0  0  0  0  0  0  0  0  0  0  0  0
   -3.9422    0.8235    5.9630 C   0  0  0  0  0  0  0  0  0  0  0  0
   -5.5870    0.9144    4.1230 C   0  0  0  0  0  0  0  0  0  0  0  0
   -4.9589   -0.0290    3.5624 O   0  0  0  0  0  0  0  0  0  0  0  0
   -6.7113    1.4335    3.5168 N   0  0  0  0  0  0  0  0  0  0  0  0
   -6.9600    1.1271    2.1009 C   0  0  0  0  0  0  0  0  0  0  0  0
   -7.4512    2.3516    4.2149 C   0  0  0  0  0  0  0  0  0  0  0  0
   -8.6746    2.9847    3.9416 C   0  0  0  0  0  0  0  0  0  0  0  0
   -9.7473    2.6685    3.0801 C   0  0  0  0  0  0  0  0  0  1  0  0
   -9.9475    1.3324    2.4801 C   0  0  0  0  0  0  0  0  0  2  0  0
  -10.2915    1.2056    1.1232 C   0  0  0  0  0  0  0  0  0  0  0  0
  -10.5192   -0.0583    0.5700 C   0  0  0  0  0  0  0  0  0  0  0  0
  -10.4231   -1.2008    1.3692 C   0  0  0  0  0  0  0  0  0  0  0  0
  -10.1041   -1.0818    2.7245 C   0  0  0  0  0  0  0  0  0  0  0  0
   -9.8727    0.1795    3.2819 C   0  0  0  0  0  0  0  0  0  0  0  0
  -10.8115    3.5888    3.0228 C   0  0  0  0  0  0  0  0  0  0  0  0
  -10.8233    4.7132    3.8660 C   0  0  0  0  0  0  0  0  0  0  0  0
  -11.9800    5.6603    3.8572 C   0  0  0  0  0  0  0  0  0  0  0  0
   -9.8320    4.8673    4.7838 N   0  0  0  0  0  0  0  0  0  0  0  0
   -8.8154    4.0080    4.8129 N   0  0  0  0  0  0  0  0  0  0  0  0
  1  3  4  0
  1 14  4  0
  1  2  1  0
  3  4  4  0
  4  5  4  0
  5  6  4  0
  5 22  1  0
  6  7  1  0
  6 14  4  0
  7  8  1  0
  8  9  4  0
  8 12  4  0
  9 10  4  0
 10 11  4  0
 11 12  4  0
 12 13  1  0
 13 14  1  0
 13 15  1  6
 15 16  4  0
 15 20  4  0
 16 17  4  0
 17 18  4  0
 17 21  1  0
 18 19  4  0
 19 20  4  0
 23 24  4  0
 24 25  2  0
 24 26  4  0
 26 27  1  0
 26 28  4  0
 28 29  2  0
 28 30  4  0
 30 31  1  0
 30 32  4  0
 32 33  4  0
 33 34  4  0
 34 35  1  0
 35 36  4  0
 36 37  4  0
 37 38  4  0
 38 39  4  0
 39 40  4  0
 34 41  4  0
 41 42  4  0
 42 43  1  0
 42 44  4  0
 44 45  4  0
 32 23  4  0
 45 33  4  0
 40 35  4  0
  2 23  4  0
  2 45  4  0
M  END
$$$$

     RDKit          3D

 31 35  0  0  0  0  0  0  0  0999 V2000
   -7.6410    4.9930    6.8080 C   0  0  0  0  0  0  0  0  0  1  0  0
   -7.7310    4.0530    5.7140 C   0  0  0  0  0  0  0  0  0  2  0  0
   -6.4520    5.6300    6.8680 N   0  0  0  0  0  0  0  0  0  0  0  0
   -6.2260    6.5240    7.8670 N   0  0  0  0  0  0  0  0  0  0  0  0
   -7.1930    6.7500    8.7820 C   0  0  0  0  0  0  0  0  0  0  0  0
   -8.4240    6.1170    8.7580 C   0  0  0  0  0  0  0  0  0  0  0  0
   -9.3950    6.3570    9.7450 N   0  0  0  0  0  0  0  0  0  0  0  0
  -10.5620    5.6840    9.7600 C   0  0  0  0  0  0  0  0  0  0  0  0
  -11.5770    5.6820   10.5960 N   0  0  0  0  0  0  0  0  0  0  0  0
  -12.4690    4.7490   10.1080 N   0  0  0  0  0  0  0  0  0  0  0  0
  -12.0160    4.1880    8.9920 N   0  0  0  0  0  0  0  0  0  0  0  0
  -10.8400    4.7900    8.7610 N   0  0  0  0  0  0  0  0  0  0  0  0
   -9.9950    4.4790    7.6090 C   0  0  0  0  0  0  0  0  0  0  0  0
   -8.6630    5.2070    7.7200 C   0  0  0  0  0  0  0  0  0  0  0  0
  -10.7490    4.8610    6.3730 C   0  0  0  0  0  0  0  0  0  0  0  0
  -11.0350    6.2020    6.1170 C   0  0  0  0  0  0  0  0  0  0  0  0
  -11.7370    6.5580    4.9650 C   0  0  0  0  0  0  0  0  0  0  0  0
  -12.1550    5.5730    4.0710 C   0  0  0  0  0  0  0  0  0  0  0  0
  -11.8700    4.2310    4.3270 C   0  0  0  0  0  0  0  0  0  0  0  0
  -11.1660    3.8760    5.4790 C   0  0  0  0  0  0  0  0  0  0  0  0
  -12.0160    7.8660    4.7150 O   0  0  0  0  0  0  0  0  0  0  0  0
   -6.8990    7.6510    9.7710 O   0  0  0  0  0  0  0  0  0  0  0  0
   -6.9456    2.8912    5.6528 C   0  0  0  0  0  0  0  0  0  0  0  0
   -7.1252    1.8973    4.6911 C   0  0  0  0  0  0  0  0  0  0  0  0
   -8.1485    1.9987    3.7457 C   0  0  0  0  0  0  0  0  0  0  0  0
   -8.2997    0.9504    2.8234 O   0  0  0  0  0  0  0  0  0  0  0  0
   -9.2477    0.9084    1.7570 C   0  0  0  0  0  0  0  0  0  0  0  0
   -8.7999    1.7915    0.5972 C   0  0  0  0  0  0  0  0  0  0  0  0
   -8.9850    3.1313    3.7605 C   0  0  0  0  0  0  0  0  0  0  0  0
   -8.8023    4.1500    4.7112 C   0  0  0  0  0  0  0  0  0  0  0  0
   -9.6936    5.3618    4.6327 C   0  0  0  0  0  0  0  0  0  0  0  0
  1  3  4  0
  1 14  4  0
  1  2  1  0
  3  4  4  0
  4  5  4  0
  5  6  4  0
  5 22  1  0
  6  7  1  0
  6 14  4  0
  7  8  1  0
  8  9  4  0
  8 12  4  0
  9 10  4  0
 10 11  4  0
 11 12  4  0
 12 13  1  0
 13 14  1  0
 13 15  1  6
 15 16  4  0
 15 20  4  0
 16 17  4  0
 17 18  4  0
 17 21  1  0
 18 19  4  0
 19 20  4  0
 23 24  4  0
 24 25  4  0
 25 26  1  0
 26 27  1  0
 27 28  1  0
 25 29  4  0
 29 30  4  0
 30 31  1  0
  2 23  4  0
  2 30  4  0
M  END
$$$$

     RDKit          3D

 32 37  0  0  0  0  0  0  0  0999 V2000
   -7.6410    4.9930    6.8080 C   0  0  0  0  0  0  0  0  0  1  0  0
   -7.7310    4.0530    5.7140 C   0  0  0  0  0  0  0  0  0  2  0  0
   -6.4520    5.6300    6.8680 N   0  0  0  0  0  0  0  0  0  0  0  0
   -6.2260    6.5240    7.8670 N   0  0  0  0  0  0  0  0  0  0  0  0
   -7.1930    6.7500    8.7820 C   0  0  0  0  0  0  0  0  0  0  0  0
   -8.4240    6.1170    8.7580 C   0  0  0  0  0  0  0  0  0  0  0  0
   -9.3950    6.3570    9.7450 N   0  0  0  0  0  0  0  0  0  0  0  0
  -10.5620    5.6840    9.7600 C   0  0  0  0  0  0  0  0  0  0  0  0
  -11.5770    5.6820   10.5960 N   0  0  0  0  0  0  0  0  0  0  0  0
  -12.4690    4.7490   10.1080 N   0  0  0  0  0  0  0  0  0  0  0  0
  -12.0160    4.1880    8.9920 N   0  0  0  0  0  0  0  0  0  0  0  0
  -10.8400    4.7900    8.7610 N   0  0  0  0  0  0  0  0  0  0  0  0
   -9.9950    4.4790    7.6090 C   0  0  0  0  0  0  0  0  0  0  0  0
   -8.6630    5.2070    7.7200 C   0  0  0  0  0  0  0  0  0  0  0  0
  -10.7490    4.8610    6.3730 C   0  0  0  0  0  0  0  0  0  0  0  0
  -11.0350    6.2020    6.1170 C   0  0  0  0  0  0  0  0  0  0  0  0
  -11.7370    6.5580    4.9650 C   0  0  0  0  0  0  0  0  0  0  0  0
  -12.1550    5.5730    4.0710 C   0  0  0  0  0  0  0  0  0  0  0  0
  -11.8700    4.2310    4.3270 C   0  0  0  0  0  0  0  0  0  0  0  0
  -11.1660    3.8760    5.4790 C   0  0  0  0  0  0  0  0  0  0  0  0
  -12.0160    7.8660    4.7150 O   0  0  0  0  0  0  0  0  0  0  0  0
   -6.8990    7.6510    9.7710 O   0  0  0  0  0  0  0  0  0  0  0  0
   -7.0455    2.8026    5.6444 C   0  0  0  0  0  0  0  0  0  0  0  0
   -6.0715    2.5162    6.6044 O   0  0  0  0  0  0  0  0  0  0  0  0
   -7.2581    1.8641    4.6324 C   0  0  0  0  0  0  0  0  0  0  0  0
   -8.2404    2.0668    3.6671 C   0  0  0  0  0  0  0  0  0  0  0  0
   -9.0251    3.2252    3.6901 C   0  0  0  0  0  0  0  0  0  0  0  0
  -10.0091    3.4230    2.7082 C   0  0  0  0  0  0  0  0  0  0  0  0
  -10.7824    4.5840    2.7106 C   0  0  0  0  0  0  0  0  0  0  0  0
  -10.5775    5.5591    3.6857 C   0  0  0  0  0  0  0  0  0  0  0  0
   -9.6035    5.3777    4.6705 C   0  0  0  0  0  0  0  0  0  0  0  0
   -8.8184    4.2033    4.6992 C   0  0  0  0  0  0  0  0  0  0  0  0
  1  3  4  0
  1 14  4  0
  1  2  1  0
  3  4  4  0
  4  5  4  0
  5  6  4  0
  5 22  1  0
  6  7  1  0
  6 14  4  0
  7  8  1  0
  8  9  4  0
  8 12  4  0
  9 10  4  0
 10 11  4  0
 11 12  4  0
 12 13  1  0
 13 14  1  0
 13 15  1  6
 15 16  4  0
 15 20  4  0
 16 17  4  0
 17 18  4  0
 17 21  1  0
 18 19  4  0
 19 20  4  0
 23 24  1  0
 23 25  4  0
 25 26  4  0
 26 27  4  0
 27 28  4  0
 28 29  4  0
 29 30  4  0
 30 31  4  0
 31 32  4  0
 32 27  4  0
  2 23  4  0
  2 32  4  0
M  END
$$$$

     RDKit          3D

 32 37  0  0  0  0  0  0  0  0999 V2000
   -7.6410    4.9930    6.8080 C   0  0  0  0  0  0  0  0  0  1  0  0
   -7.7310    4.0530    5.7140 C   0  0  0  0  0  0  0  0  0  2  0  0
   -6.4520    5.6300    6.8680 N   0  0  0  0  0  0  0  0  0  0  0  0
   -6.2260    6.5240    7.8670 N   0  0  0  0  0  0  0  0  0  0  0  0
   -7.1930    6.7500    8.7820 C   0  0  0  0  0  0  0  0  0  0  0  0
   -8.4240    6.1170    8.7580 C   0  0  0  0  0  0  0  0  0  0  0  0
   -9.3950    6.3570    9.7450 N   0  0  0  0  0  0  0  0  0  0  0  0
  -10.5620    5.6840    9.7600 C   0  0  0  0  0  0  0  0  0  0  0  0
  -11.5770    5.6820   10.5960 N   0  0  0  0  0  0  0  0  0  0  0  0
  -12.4690    4.7490   10.1080 N   0  0  0  0  0  0  0  0  0  0  0  0
  -12.0160    4.1880    8.9920 N   0  0  0  0  0  0  0  0  0  0  0  0
  -10.8400    4.7900    8.7610 N   0  0  0  0  0  0  0  0  0  0  0  0
   -9.9950    4.4790    7.6090 C   0  0  0  0  0  0  0  0  0  0  0  0
   -8.6630    5.2070    7.7200 C   0  0  0  0  0  0  0  0  0  0  0  0
  -10.7490    4.8610    6.3730 C   0  0  0  0  0  0  0  0  0  0  0  0
  -11.0350    6.2020    6.1170 C   0  0  0  0  0  0  0  0  0  0  0  0
  -11.7370    6.5580    4.9650 C   0  0  0  0  0  0  0  0  0  0  0  0
  -12.1550    5.5730    4.0710 C   0  0  0  0  0  0  0  0  0  0  0  0
  -11.8700    4.2310    4.3270 C   0  0  0  0  0  0  0  0  0  0  0  0
  -11.1660    3.8760    5.4790 C   0  0  0  0  0  0  0  0  0  0  0  0
  -12.0160    7.8660    4.7150 O   0  0  0  0  0  0  0  0  0  0  0  0
   -6.8990    7.6510    9.7710 O   0  0  0  0  0  0  0  0  0  0  0  0
   -8.8197    4.2363    4.7170 C   0  0  0  0  0  0  0  0  0  0  0  0
   -9.5801    5.4087    4.7190 O   0  0  0  0  0  0  0  0  0  0  0  0
   -9.0590    3.3062    3.7034 C   0  0  0  0  0  0  0  0  0  0  0  0
   -8.3118    2.1346    3.6203 C   0  0  0  0  0  0  0  0  0  0  0  0
   -7.3145    1.8642    4.5639 C   0  0  0  0  0  0  0  0  0  0  0  0
   -6.5724    0.6755    4.4757 C   0  0  0  0  0  0  0  0  0  0  0  0
   -5.5914    0.3862    5.4242 C   0  0  0  0  0  0  0  0  0  0  0  0
   -5.3470    1.2740    6.4709 C   0  0  0  0  0  0  0  0  0  0  0  0
   -6.0752    2.4617    6.5728 C   0  0  0  0  0  0  0  0  0  0  0  0
   -7.0619    2.7861    5.6148 C   0  0  0  0  0  0  0  0  0  0  0  0
  1  3  4  0
  1 14  4  0
  1  2  1  0
  3  4  4  0
  4  5  4  0
  5  6  4  0
  5 22  1  0
  6  7  1  0
  6 14  4  0
  7  8  1  0
  8  9  4  0
  8 12  4  0
  9 10  4  0
 10 11  4  0
 11 12  4  0
 12 13  1  0
 13 14  1  0
 13 15  1  6
 15 16  4  0
 15 20  4  0
 16 17  4  0
 17 18  4  0
 17 21  1  0
 18 19  4  0
 19 20  4  0
 23 24  1  0
 23 25  4  0
 25 26  4  0
 26 27  4  0
 27 28  4  0
 28 29  4  0
 29 30  4  0
 30 31  4  0
 31 32  4  0
 32 27  4  0
  2 23  4  0
  2 32  4  0
M  END
$$$$

     RDKit          3D

 43 49  0  0  0  0  0  0  0  0999 V2000
   -7.6410    4.9930    6.8080 C   0  0  0  0  0  0  0  0  0  1  0  0
   -7.7310    4.0530    5.7140 C   0  0  0  0  0  0  0  0  0  2  0  0
   -6.4520    5.6300    6.8680 N   0  0  0  0  0  0  0  0  0  0  0  0
   -6.2260    6.5240    7.8670 N   0  0  0  0  0  0  0  0  0  0  0  0
   -7.1930    6.7500    8.7820 C   0  0  0  0  0  0  0  0  0  0  0  0
   -8.4240    6.1170    8.7580 C   0  0  0  0  0  0  0  0  0  0  0  0
   -9.3950    6.3570    9.7450 N   0  0  0  0  0  0  0  0  0  0  0  0
  -10.5620    5.6840    9.7600 C   0  0  0  0  0  0  0  0  0  0  0  0
  -11.5770    5.6820   10.5960 N   0  0  0  0  0  0  0  0  0  0  0  0
  -12.4690    4.7490   10.1080 N   0  0  0  0  0  0  0  0  0  0  0  0
  -12.0160    4.1880    8.9920 N   0  0  0  0  0  0  0  0  0  0  0  0
  -10.8400    4.7900    8.7610 N   0  0  0  0  0  0  0  0  0  0  0  0
   -9.9950    4.4790    7.6090 C   0  0  0  0  0  0  0  0  0  0  0  0
   -8.6630    5.2070    7.7200 C   0  0  0  0  0  0  0  0  0  0  0  0
  -10.7490    4.8610    6.3730 C   0  0  0  0  0  0  0  0  0  0  0  0
  -11.0350    6.2020    6.1170 C   0  0  0  0  0  0  0  0  0  0  0  0
  -11.7370    6.5580    4.9650 C   0  0  0  0  0  0  0  0  0  0  0  0
  -12.1550    5.5730    4.0710 C   0  0  0  0  0  0  0  0  0  0  0  0
  -11.8700    4.2310    4.3270 C   0  0  0  0  0  0  0  0  0  0  0  0
  -11.1660    3.8760    5.4790 C   0  0  0  0  0  0  0  0  0  0  0  0
  -12.0160    7.8660    4.7150 O   0  0  0  0  0  0  0  0  0  0  0  0
   -6.8990    7.6510    9.7710 O   0  0  0  0  0  0  0  0  0  0  0  0
   -6.8542    2.9533    5.5222 C   0  0  0  0  0  0  0  0  0  0  0  0
   -6.9973    2.0287    4.4601 C   0  0  0  0  0  0  0  0  0  0  0  0
   -6.0399    0.8825    4.3265 C   0  0  0  0  0  0  0  0  0  0  0  0
   -8.0864    2.1456    3.5727 C   0  0  0  0  0  0  0  0  0  0  0  0
   -8.9784    3.2019    3.7463 C   0  0  0  0  0  0  0  0  0  0  0  0
   -8.8238    4.1054    4.7599 C   0  0  0  0  0  0  0  0  0  0  0  0
   -9.8167    5.0622    4.7335 O   0  0  0  0  0  0  0  0  0  0  0  0
  -10.7476    4.7838    3.6864 C   0  0  0  0  0  0  0  0  0  0  0  0
  -10.8935    6.0103    2.7804 C   0  0  0  0  0  0  0  0  0  0  0  0
  -11.8607    5.7404    1.7158 N   0  0  0  0  0  0  0  0  0  0  0  0
  -11.5325    5.8287    0.3213 C   0  0  0  0  0  0  0  0  0  0  0  0
  -10.4341    6.3256   -0.0496 O   0  0  0  0  0  0  0  0  0  0  0  0
  -12.4668    5.2656   -0.7030 C   0  0  0  0  0  0  0  0  0  0  0  0
  -12.1592    3.8527   -0.9214 N   0  0  0  0  0  0  0  0  0  0  0  0
  -11.0579    3.4404   -1.5304 N   0  0  0  0  0  0  0  0  0  0  0  0
  -11.0901    2.0927   -1.5567 C   0  0  0  0  0  0  0  0  0  0  0  0
  -10.0572    1.2503   -2.2252 C   0  0  0  0  0  0  0  0  0  0  0  0
  -12.2521    1.6316   -0.9662 C   0  0  0  0  0  0  0  0  0  0  0  0
  -12.9031    2.7817   -0.5648 C   0  0  0  0  0  0  0  0  0  0  0  0
  -14.2285    2.8319    0.1303 C   0  0  0  0  0  0  0  0  0  0  0  0
  -10.1800    3.5393    2.9405 C   0  0  0  0  0  0  0  0  0  0  0  0
  1  3  4  0
  1 14  4  0
  1  2  1  0
  3  4  4  0
  4  5  4  0
  5  6  4  0
  5 22  1  0
  6  7  1  0
  6 14  4  0
  7  8  1  0
  8  9  4  0
  8 12  4  0
  9 10  4  0
 10 11  4  0
 11 12  4  0
 12 13  1  0
 13 14  1  0
 13 15  1  6
 15 16  4  0
 15 20  4  0
 16 17  4  0
 17 18  4  0
 17 21  1  0
 18 19  4  0
 19 20  4  0
 23 24  4  0
 24 25  1  0
 24 26  4  0
 26 27  4  0
 27 28  4  0
 28 29  1  0
 29 30  1  0
 30 31  1  0
 31 32  1  0
 32 33  1  0
 33 34  2  0
 33 35  1  0
 35 36  1  0
 36 37  4  0
 37 38  4  0
 38 39  1  0
 38 40  4  0
 40 41  4  0
 41 42  1  0
 30 43  1  0
 41 36  4  0
 43 27  1  0
  2 23  4  0
  2 28  4  0
M  END
$$$$

     RDKit          3D

 37 42  0  0  0  0  0  0  0  0999 V2000
   -7.6410    4.9930    6.8080 C   0  0  0  0  0  0  0  0  0  1  0  0
   -7.7310    4.0530    5.7140 C   0  0  0  0  0  0  0  0  0  2  0  0
   -6.4520    5.6300    6.8680 N   0  0  0  0  0  0  0  0  0  0  0  0
   -6.2260    6.5240    7.8670 N   0  0  0  0  0  0  0  0  0  0  0  0
   -7.1930    6.7500    8.7820 C   0  0  0  0  0  0  0  0  0  0  0  0
   -8.4240    6.1170    8.7580 C   0  0  0  0  0  0  0  0  0  0  0  0
   -9.3950    6.3570    9.7450 N   0  0  0  0  0  0  0  0  0  0  0  0
  -10.5620    5.6840    9.7600 C   0  0  0  0  0  0  0  0  0  0  0  0
  -11.5770    5.6820   10.5960 N   0  0  0  0  0  0  0  0  0  0  0  0
  -12.4690    4.7490   10.1080 N   0  0  0  0  0  0  0  0  0  0  0  0
  -12.0160    4.1880    8.9920 N   0  0  0  0  0  0  0  0  0  0  0  0
  -10.8400    4.7900    8.7610 N   0  0  0  0  0  0  0  0  0  0  0  0
   -9.9950    4.4790    7.6090 C   0  0  0  0  0  0  0  0  0  0  0  0
   -8.6630    5.2070    7.7200 C   0  0  0  0  0  0  0  0  0  0  0  0
  -10.7490    4.8610    6.3730 C   0  0  0  0  0  0  0  0  0  0  0  0
  -11.0350    6.2020    6.1170 C   0  0  0  0  0  0  0  0  0  0  0  0
  -11.7370    6.5580    4.9650 C   0  0  0  0  0  0  0  0  0  0  0  0
  -12.1550    5.5730    4.0710 C   0  0  0  0  0  0  0  0  0  0  0  0
  -11.8700    4.2310    4.3270 C   0  0  0  0  0  0  0  0  0  0  0  0
  -11.1660    3.8760    5.4790 C   0  0  0  0  0  0  0  0  0  0  0  0
  -12.0160    7.8660    4.7150 O   0  0  0  0  0  0  0  0  0  0  0  0
   -6.8990    7.6510    9.7710 O   0  0  0  0  0  0  0  0  0  0  0  0
   -6.6903    2.7730    5.3560 S   0  0  0  0  0  0  0  0  0  0  0  0
   -7.4870    2.1633    4.0096 C   0  0  0  0  0  0  0  0  0  0  0  0
   -8.6199    2.9339    3.7891 C   0  0  0  0  0  0  0  0  0  0  0  0
   -8.8001    3.9654    4.7265 C   0  0  0  0  0  0  0  0  0  0  0  0
   -9.8842    4.9972    4.5724 C   0  0  0  0  0  0  0  0  0  0  0  0
   -9.3619    6.1888    3.8288 C   0  0  0  0  0  0  0  0  0  0  0  0
   -8.6069    7.0048    4.4242 O   0  0  0  0  0  0  0  0  0  0  0  0
   -9.6731    6.3620    2.4373 N   0  0  0  0  0  0  0  0  0  0  0  0
   -9.3842    7.5564    1.6908 C   0  0  0  0  0  0  0  0  0  0  0  0
   -9.0636    7.4554    0.3280 C   0  0  0  0  0  0  0  0  0  0  0  0
   -8.7988    8.6038   -0.4245 C   0  0  0  0  0  0  0  0  0  0  0  0
   -8.8668    9.8653    0.1742 C   0  0  0  0  0  0  0  0  0  0  0  0
   -8.5083   11.4332   -0.8556 Br  0  0  0  0  0  0  0  0  0  0  0  0
   -9.2082    9.9778    1.5253 C   0  0  0  0  0  0  0  0  0  0  0  0
   -9.4727    8.8312    2.2807 C   0  0  0  0  0  0  0  0  0  0  0  0
  1  3  4  0
  1 14  4  0
  1  2  1  0
  3  4  4  0
  4  5  4  0
  5  6  4  0
  5 22  1  0
  6  7  1  0
  6 14  4  0
  7  8  1  0
  8  9  4  0
  8 12  4  0
  9 10  4  0
 10 11  4  0
 11 12  4  0
 12 13  1  0
 13 14  1  0
 13 15  1  6
 15 16  4  0
 15 20  4  0
 16 17  4  0
 17 18  4  0
 17 21  1  0
 18 19  4  0
 19 20  4  0
 23 24  4  0
 24 25  4  0
 25 26  4  0
 26 27  1  0
 27 28  1  0
 28 29  2  0
 28 30  1  0
 30 31  1  0
 31 32  4  0
 32 33  4  0
 33 34  4  0
 34 35  1  0
 34 36  4  0
 36 37  4  0
 37 31  4  0
  2 23  4  0
  2 26  4  0
M  END
$$$$

     RDKit          3D

 54 62  0  0  0  0  0  0  0  0999 V2000
   -7.6410    4.9930    6.8080 C   0  0  0  0  0  0  0  0  0  1  0  0
   -7.7310    4.0530    5.7140 C   0  0  0  0  0  0  0  0  0  2  0  0
   -6.4520    5.6300    6.8680 N   0  0  0  0  0  0  0  0  0  0  0  0
   -6.2260    6.5240    7.8670 N   0  0  0  0  0  0  0  0  0  0  0  0
   -7.1930    6.7500    8.7820 C   0  0  0  0  0  0  0  0  0  0  0  0
   -8.4240    6.1170    8.7580 C   0  0  0  0  0  0  0  0  0  0  0  0
   -9.3950    6.3570    9.7450 N   0  0  0  0  0  0  0  0  0  0  0  0
  -10.5620    5.6840    9.7600 C   0  0  0  0  0  0  0  0  0  0  0  0
  -11.5770    5.6820   10.5960 N   0  0  0  0  0  0  0  0  0  0  0  0
  -12.4690    4.7490   10.1080 N   0  0  0  0  0  0  0  0  0  0  0  0
  -12.0160    4.1880    8.9920 N   0  0  0  0  0  0  0  0  0  0  0  0
  -10.8400    4.7900    8.7610 N   0  0  0  0  0  0  0  0  0  0  0  0
   -9.9950    4.4790    7.6090 C   0  0  0  0  0  0  0  0  0  0  0  0
   -8.6630    5.2070    7.7200 C   0  0  0  0  0  0  0  0  0  0  0  0
  -10.7490    4.8610    6.3730 C   0  0  0  0  0  0  0  0  0  0  0  0
  -11.0350    6.2020    6.1170 C   0  0  0  0  0  0  0  0  0  0  0  0
  -11.7370    6.5580    4.9650 C   0  0  0  0  0  0  0  0  0  0  0  0
  -12.1550    5.5730    4.0710 C   0  0  0  0  0  0  0  0  0  0  0  0
  -11.8700    4.2310    4.3270 C   0  0  0  0  0  0  0  0  0  0  0  0
  -11.1660    3.8760    5.4790 C   0  0  0  0  0  0  0  0  0  0  0  0
  -12.0160    7.8660    4.7150 O   0  0  0  0  0  0  0  0  0  0  0  0
   -6.8990    7.6510    9.7710 O   0  0  0  0  0  0  0  0  0  0  0  0
   -6.8653    2.9540    5.5542 C   0  0  0  0  0  0  0  0  0  0  0  0
   -7.0485    1.9505    4.5872 C   0  0  0  0  0  0  0  0  0  1  0  0
   -6.0743    0.8359    4.4665 C   0  0  0  0  0  0  0  0  0  2  0  0
   -5.5395    0.2254    5.6145 C   0  0  0  0  0  0  0  0  0  0  0  0
   -4.6242   -0.8238    5.4988 C   0  0  0  0  0  0  0  0  0  0  0  0
   -4.2317   -1.2829    4.2343 C   0  0  0  0  0  0  0  0  0  1  0  0
   -3.2718   -2.3989    4.1129 C   0  0  0  0  0  0  0  0  0  2  0  0
   -2.0174   -2.2795    3.4950 C   0  0  0  0  0  0  0  0  0  0  0  0
   -1.4802   -1.0463    2.8149 C   0  0  0  0  0  0  0  0  0  0  0  0
    0.0263   -1.0077    2.8305 C   0  0  0  0  0  0  0  0  0  0  0  0
    0.7532   -1.1850    1.6409 C   0  0  0  0  0  0  0  0  0  0  0  0
    2.1513   -1.1907    1.6672 C   0  0  0  0  0  0  0  0  0  0  0  0
    2.8333   -1.0170    2.8753 C   0  0  0  0  0  0  0  0  0  0  0  0
    2.1177   -0.8392    4.0629 C   0  0  0  0  0  0  0  0  0  0  0  0
    0.7191   -0.8315    4.0426 C   0  0  0  0  0  0  0  0  0  0  0  0
   -1.2533   -3.7915    3.5062 S   0  0  0  0  0  0  0  0  0  0  0  0
   -2.4793   -4.5859    4.3276 C   0  0  0  0  0  0  0  0  0  0  0  0
   -2.5339   -5.9279    4.6988 C   0  0  0  0  0  0  0  0  0  0  0  0
   -3.6860   -6.3906    5.3501 C   0  0  0  0  0  0  0  0  0  0  0  0
   -4.7469   -5.5063    5.6295 C   0  0  0  0  0  0  0  0  0  0  0  0
   -4.6699   -4.1585    5.2444 C   0  0  0  0  0  0  0  0  0  0  0  0
   -3.5174   -3.7020    4.5884 C   0  0  0  0  0  0  0  0  0  0  0  0
   -4.7623   -0.6808    3.0856 C   0  0  0  0  0  0  0  0  0  0  0  0
   -5.6753    0.3713    3.2004 C   0  0  0  0  0  0  0  0  0  0  0  0
   -8.1756    2.0050    3.7495 C   0  0  0  0  0  0  0  0  0  0  0  0
   -9.0958    3.0468    3.8710 C   0  0  0  0  0  0  0  0  0  0  0  0
   -8.9009    4.0607    4.8148 C   0  0  0  0  0  0  0  0  0  0  0  0
   -9.8191    5.1179    4.8607 O   0  0  0  0  0  0  0  0  0  0  0  0
   -9.4655    6.4585    4.5188 C   0  0  0  0  0  0  0  0  0  0  0  0
   -9.1646    6.5565    3.0551 C   0  0  0  0  0  0  0  0  0  0  0  0
  -10.0755    6.3502    2.2086 O   0  0  0  0  0  0  0  0  0  0  0  0
   -7.8744    6.8446    2.6263 O   0  0  0  0  0  0  0  0  0  0  0  0
  1  3  4  0
  1 14  4  0
  1  2  1  0
  3  4  4  0
  4  5  4  0
  5  6  4  0
  5 22  1  0
  6  7  1  0
  6 14  4  0
  7  8  1  0
  8  9  4  0
  8 12  4  0
  9 10  4  0
 10 11  4  0
 11 12  4  0
 12 13  1  0
 13 14  1  0
 13 15  1  6
 15 16  4  0
 15 20  4  0
 16 17  4  0
 17 18  4  0
 17 21  1  0
 18 19  4  0
 19 20  4  0
 23 24  4  0
 24 25  1  0
 25 26  4  0
 26 27  4  0
 27 28  4  0
 28 29  1  0
 29 30  4  0
 30 31  1  0
 31 32  1  0
 32 33  4  0
 33 34  4  0
 34 35  4  0
 35 36  4  0
 36 37  4  0
 30 38  4  0
 38 39  4  0
 39 40  4  0
 40 41  4  0
 41 42  4  0
 42 43  4  0
 43 44  4  0
 28 45  4  0
 45 46  4  0
 24 47  4  0
 47 48  4  0
 48 49  4  0
 49 50  1  0
 50 51  1  0
 51 52  1  0
 52 53  2  0
 52 54  1  0
 46 25  4  0
 44 29  4  0
 37 32  4  0
 44 39  4  0
  2 23  4  0
  2 49  4  0
M  CHG  1  54  -1
M  END
$$$$

     RDKit          3D

 42 48  0  0  0  0  0  0  0  0999 V2000
   -7.6410    4.9930    6.8080 C   0  0  0  0  0  0  0  0  0  1  0  0
   -7.7310    4.0530    5.7140 C   0  0  0  0  0  0  0  0  0  2  0  0
   -6.4520    5.6300    6.8680 N   0  0  0  0  0  0  0  0  0  0  0  0
   -6.2260    6.5240    7.8670 N   0  0  0  0  0  0  0  0  0  0  0  0
   -7.1930    6.7500    8.7820 C   0  0  0  0  0  0  0  0  0  0  0  0
   -8.4240    6.1170    8.7580 C   0  0  0  0  0  0  0  0  0  0  0  0
   -9.3950    6.3570    9.7450 N   0  0  0  0  0  0  0  0  0  0  0  0
  -10.5620    5.6840    9.7600 C   0  0  0  0  0  0  0  0  0  0  0  0
  -11.5770    5.6820   10.5960 N   0  0  0  0  0  0  0  0  0  0  0  0
  -12.4690    4.7490   10.1080 N   0  0  0  0  0  0  0  0  0  0  0  0
  -12.0160    4.1880    8.9920 N   0  0  0  0  0  0  0  0  0  0  0  0
  -10.8400    4.7900    8.7610 N   0  0  0  0  0  0  0  0  0  0  0  0
   -9.9950    4.4790    7.6090 C   0  0  0  0  0  0  0  0  0  0  0  0
   -8.6630    5.2070    7.7200 C   0  0  0  0  0  0  0  0  0  0  0  0
  -10.7490    4.8610    6.3730 C   0  0  0  0  0  0  0  0  0  0  0  0
  -11.0350    6.2020    6.1170 C   0  0  0  0  0  0  0  0  0  0  0  0
  -11.7370    6.5580    4.9650 C   0  0  0  0  0  0  0  0  0  0  0  0
  -12.1550    5.5730    4.0710 C   0  0  0  0  0  0  0  0  0  0  0  0
  -11.8700    4.2310    4.3270 C   0  0  0  0  0  0  0  0  0  0  0  0
  -11.1660    3.8760    5.4790 C   0  0  0  0  0  0  0  0  0  0  0  0
  -12.0160    7.8660    4.7150 O   0  0  0  0  0  0  0  0  0  0  0  0
   -6.8990    7.6510    9.7710 O   0  0  0  0  0  0  0  0  0  0  0  0
   -6.8116    3.1002    5.4001 N   0  0  0  0  0  0  0  0  0  0  0  0
   -7.2973    2.4584    4.3242 C   0  0  0  0  0  0  0  0  0  0  0  0
   -6.6833    1.4396    3.6011 C   0  0  0  0  0  0  0  0  0  0  0  0
   -7.3518    0.9331    2.4609 C   0  0  0  0  0  0  0  0  0  0  0  0
   -6.7463   -0.1498    1.6560 C   0  0  0  0  0  0  0  0  0  0  0  0
   -5.6254   -0.6300    1.9817 O   0  0  0  0  0  0  0  0  0  0  0  0
   -7.4197   -0.6435    0.5333 O   0  0  0  0  0  0  0  0  0  0  0  0
   -6.8847   -1.6701   -0.2933 C   0  0  0  0  0  0  0  0  0  0  0  0
   -8.6083    1.4816    2.0891 C   0  0  0  0  0  0  0  0  0  0  0  0
   -9.1942    2.5151    2.8416 C   0  0  0  0  0  0  0  0  0  0  0  0
   -8.5083    2.9704    3.9685 C   0  0  0  0  0  0  0  0  0  0  0  0
   -8.8438    3.9496    4.8299 N   0  0  0  0  0  0  0  0  0  0  0  0
   -9.9938    4.8580    4.7250 C   0  0  0  0  0  0  0  0  0  0  0  0
  -11.2984    4.1041    4.8135 C   0  0  0  0  0  0  0  0  0  0  0  0
  -12.3169    4.3442    3.8752 C   0  0  0  0  0  0  0  0  0  0  0  0
  -13.5299    3.6539    3.9571 C   0  0  0  0  0  0  0  0  0  0  0  0
  -13.7384    2.7216    4.9765 C   0  0  0  0  0  0  0  0  0  0  0  0
  -14.9153    2.0529    5.0540 F   0  0  0  0  0  0  0  0  0  0  0  0
  -12.7340    2.4797    5.9169 C   0  0  0  0  0  0  0  0  0  0  0  0
  -11.5200    3.1686    5.8395 C   0  0  0  0  0  0  0  0  0  0  0  0
  1  3  4  0
  1 14  4  0
  1  2  1  0
  3  4  4  0
  4  5  4  0
  5  6  4  0
  5 22  1  0
  6  7  1  0
  6 14  4  0
  7  8  1  0
  8  9  4  0
  8 12  4  0
  9 10  4  0
 10 11  4  0
 11 12  4  0
 12 13  1  0
 13 14  1  0
 13 15  1  6
 15 16  4  0
 15 20  4  0
 16 17  4  0
 17 18  4  0
 17 21  1  0
 18 19  4  0
 19 20  4  0
 23 24  4  0
 24 25  4  0
 25 26  4  0
 26 27  1  0
 27 28  2  0
 27 29  1  0
 29 30  1  0
 26 31  4  0
 31 32  4  0
 32 33  4  0
 33 34  4  0
 34 35  1  0
 35 36  1  0
 36 37  4  0
 37 38  4  0
 38 39  4  0
 39 40  1  0
 39 41  4  0
 41 42  4  0
 42 36  4  0
 33 24  4  0
  2 23  4  0
  2 34  4  0
M  END
$$$$

     RDKit          3D

 40 46  0  0  0  0  0  0  0  0999 V2000
   -7.6410    4.9930    6.8080 C   0  0  0  0  0  0  0  0  0  1  0  0
   -7.7310    4.0530    5.7140 C   0  0  0  0  0  0  0  0  0  2  0  0
   -6.4520    5.6300    6.8680 N   0  0  0  0  0  0  0  0  0  0  0  0
   -6.2260    6.5240    7.8670 N   0  0  0  0  0  0  0  0  0  0  0  0
   -7.1930    6.7500    8.7820 C   0  0  0  0  0  0  0  0  0  0  0  0
   -8.4240    6.1170    8.7580 C   0  0  0  0  0  0  0  0  0  0  0  0
   -9.3950    6.3570    9.7450 N   0  0  0  0  0  0  0  0  0  0  0  0
  -10.5620    5.6840    9.7600 C   0  0  0  0  0  0  0  0  0  0  0  0
  -11.5770    5.6820   10.5960 N   0  0  0  0  0  0  0  0  0  0  0  0
  -12.4690    4.7490   10.1080 N   0  0  0  0  0  0  0  0  0  0  0  0
  -12.0160    4.1880    8.9920 N   0  0  0  0  0  0  0  0  0  0  0  0
  -10.8400    4.7900    8.7610 N   0  0  0  0  0  0  0  0  0  0  0  0
   -9.9950    4.4790    7.6090 C   0  0  0  0  0  0  0  0  0  0  0  0
   -8.6630    5.2070    7.7200 C   0  0  0  0  0  0  0  0  0  0  0  0
  -10.7490    4.8610    6.3730 C   0  0  0  0  0  0  0  0  0  0  0  0
  -11.0350    6.2020    6.1170 C   0  0  0  0  0  0  0  0  0  0  0  0
  -11.7370    6.5580    4.9650 C   0  0  0  0  0  0  0  0  0  0  0  0
  -12.1550    5.5730    4.0710 C   0  0  0  0  0  0  0  0  0  0  0  0
  -11.8700    4.2310    4.3270 C   0  0  0  0  0  0  0  0  0  0  0  0
  -11.1660    3.8760    5.4790 C   0  0  0  0  0  0  0  0  0  0  0  0
  -12.0160    7.8660    4.7150 O   0  0  0  0  0  0  0  0  0  0  0  0
   -6.8990    7.6510    9.7710 O   0  0  0  0  0  0  0  0  0  0  0  0
   -6.8584    3.0688    5.3938 N   0  0  0  0  0  0  0  0  0  0  0  0
   -7.3205    2.3779    4.3586 N   0  0  0  0  0  0  0  0  0  0  0  0
   -8.5141    2.9098    4.0330 C   0  0  0  0  0  0  0  0  0  0  0  0
   -9.5190    2.3407    2.6630 S   0  0  0  0  0  0  0  0  0  0  0  0
  -10.4688    1.1776    3.6998 C   0  0  0  0  0  0  0  0  0  0  0  0
  -11.5021    0.4281    2.8594 C   0  0  0  0  0  0  0  0  0  0  0  0
  -10.8486   -0.4243    1.8619 N   0  0  0  0  0  0  0  0  0  0  0  0
  -10.1738   -1.5829    2.0745 C   0  0  0  0  0  0  0  0  0  0  0  0
  -10.0085   -2.0958    3.2132 O   0  0  0  0  0  0  0  0  0  0  0  0
   -9.7123   -2.1268    0.9622 O   0  0  0  0  0  0  0  0  0  0  0  0
  -10.0860   -1.3225   -0.0043 C   0  0  0  0  0  0  0  0  0  0  0  0
   -9.8476   -1.4402   -1.3704 C   0  0  0  0  0  0  0  0  0  0  0  0
  -10.3533   -0.4301   -2.2099 C   0  0  0  0  0  0  0  0  0  0  0  0
  -11.0739    0.6588   -1.6676 C   0  0  0  0  0  0  0  0  0  0  0  0
  -11.2986    0.7484   -0.2805 C   0  0  0  0  0  0  0  0  0  0  0  0
  -10.7876   -0.2729    0.5243 C   0  0  0  0  0  0  0  0  0  0  0  0
   -8.8271    3.9312    4.8466 N   0  0  0  0  0  0  0  0  0  0  0  0
   -9.9136    4.8131    4.7253 N   0  0  0  0  0  0  0  0  0  0  0  0
  1  3  4  0
  1 14  4  0
  1  2  1  0
  3  4  4  0
  4  5  4  0
  5  6  4  0
  5 22  1  0
  6  7  1  0
  6 14  4  0
  7  8  1  0
  8  9  4  0
  8 12  4  0
  9 10  4  0
 10 11  4  0
 11 12  4  0
 12 13  1  0
 13 14  1  0
 13 15  1  6
 15 16  4  0
 15 20  4  0
 16 17  4  0
 17 18  4  0
 17 21  1  0
 18 19  4  0
 19 20  4  0
 23 24  4  0
 24 25  4  0
 25 26  1  0
 26 27  1  0
 27 28  1  0
 28 29  1  0
 29 30  4  0
 30 31  2  0
 30 32  4  0
 32 33  4  0
 33 34  4  0
 34 35  4  0
 35 36  4  0
 36 37  4  0
 37 38  4  0
 25 39  4  0
 39 40  1  0
 38 29  4  0
 38 33  4  0
  2 23  4  0
  2 39  4  0
M  END
$$$$

     RDKit          3D

 40 46  0  0  0  0  0  0  0  0999 V2000
   -7.6410    4.9930    6.8080 C   0  0  0  0  0  0  0  0  0  1  0  0
   -7.7310    4.0530    5.7140 C   0  0  0  0  0  0  0  0  0  2  0  0
   -6.4520    5.6300    6.8680 N   0  0  0  0  0  0  0  0  0  0  0  0
   -6.2260    6.5240    7.8670 N   0  0  0  0  0  0  0  0  0  0  0  0
   -7.1930    6.7500    8.7820 C   0  0  0  0  0  0  0  0  0  0  0  0
   -8.4240    6.1170    8.7580 C   0  0  0  0  0  0  0  0  0  0  0  0
   -9.3950    6.3570    9.7450 N   0  0  0  0  0  0  0  0  0  0  0  0
  -10.5620    5.6840    9.7600 C   0  0  0  0  0  0  0  0  0  0  0  0
  -11.5770    5.6820   10.5960 N   0  0  0  0  0  0  0  0  0  0  0  0
  -12.4690    4.7490   10.1080 N   0  0  0  0  0  0  0  0  0  0  0  0
  -12.0160    4.1880    8.9920 N   0  0  0  0  0  0  0  0  0  0  0  0
  -10.8400    4.7900    8.7610 N   0  0  0  0  0  0  0  0  0  0  0  0
   -9.9950    4.4790    7.6090 C   0  0  0  0  0  0  0  0  0  0  0  0
   -8.6630    5.2070    7.7200 C   0  0  0  0  0  0  0  0  0  0  0  0
  -10.7490    4.8610    6.3730 C   0  0  0  0  0  0  0  0  0  0  0  0
  -11.0350    6.2020    6.1170 C   0  0  0  0  0  0  0  0  0  0  0  0
  -11.7370    6.5580    4.9650 C   0  0  0  0  0  0  0  0  0  0  0  0
  -12.1550    5.5730    4.0710 C   0  0  0  0  0  0  0  0  0  0  0  0
  -11.8700    4.2310    4.3270 C   0  0  0  0  0  0  0  0  0  0  0  0
  -11.1660    3.8760    5.4790 C   0  0  0  0  0  0  0  0  0  0  0  0
  -12.0160    7.8660    4.7150 O   0  0  0  0  0  0  0  0  0  0  0  0
   -6.8990    7.6510    9.7710 O   0  0  0  0  0  0  0  0  0  0  0  0
   -6.8585    3.0689    5.3940 N   0  0  0  0  0  0  0  0  0  0  0  0
   -7.3212    2.3780    4.3592 N   0  0  0  0  0  0  0  0  0  0  0  0
   -8.5159    2.9079    4.0347 C   0  0  0  0  0  0  0  0  0  0  0  0
   -9.5186    2.3458    2.6571 S   0  0  0  0  0  0  0  0  0  0  0  0
  -10.5619    1.2373    3.6706 C   0  0  0  0  0  0  0  0  0  0  0  0
   -9.8759   -0.1078    3.9245 C   0  0  0  0  0  0  0  0  0  0  0  0
   -9.6273   -0.8185    2.6663 N   0  0  0  0  0  0  0  0  0  0  0  0
  -10.5415   -1.3908    1.8416 C   0  0  0  0  0  0  0  0  0  0  0  0
  -11.7820   -1.3823    2.0607 O   0  0  0  0  0  0  0  0  0  0  0  0
   -9.9982   -1.9699    0.7855 O   0  0  0  0  0  0  0  0  0  0  0  0
   -8.7056   -1.7858    0.9091 C   0  0  0  0  0  0  0  0  0  0  0  0
   -7.6864   -2.2009    0.0573 C   0  0  0  0  0  0  0  0  0  0  0  0
   -6.3648   -1.8752    0.4147 C   0  0  0  0  0  0  0  0  0  0  0  0
   -6.1003   -1.1524    1.6006 C   0  0  0  0  0  0  0  0  0  0  0  0
   -7.1543   -0.7476    2.4416 C   0  0  0  0  0  0  0  0  0  0  0  0
   -8.4545   -1.0860    2.0585 C   0  0  0  0  0  0  0  0  0  0  0  0
   -8.8271    3.9311    4.8466 N   0  0  0  0  0  0  0  0  0  0  0  0
   -9.9124    4.8144    4.7247 N   0  0  0  0  0  0  0  0  0  0  0  0
  1  3  4  0
  1 14  4  0
  1  2  1  0
  3  4  4  0
  4  5  4  0
  5  6  4  0
  5 22  1  0
  6  7  1  0
  6 14  4  0
  7  8  1  0
  8  9  4  0
  8 12  4  0
  9 10  4  0
 10 11  4  0
 11 12  4  0
 12 13  1  0
 13 14  1  0
 13 15  1  6
 15 16  4  0
 15 20  4  0
 16 17  4  0
 17 18  4  0
 17 21  1  0
 18 19  4  0
 19 20  4  0
 23 24  4  0
 24 25  4  0
 25 26  1  0
 26 27  1  0
 27 28  1  0
 28 29  1  0
 29 30  4  0
 30 31  2  0
 30 32  4  0
 32 33  4  0
 33 34  4  0
 34 35  4  0
 35 36  4  0
 36 37  4  0
 37 38  4  0
 25 39  4  0
 39 40  1  0
 38 29  4  0
 38 33  4  0
  2 23  4  0
  2 39  4  0
M  END
$$$$

     RDKit          3D

 40 46  0  0  0  0  0  0  0  0999 V2000
   -7.6410    4.9930    6.8080 C   0  0  0  0  0  0  0  0  0  1  0  0
   -7.7310    4.0530    5.7140 C   0  0  0  0  0  0  0  0  0  2  0  0
   -6.4520    5.6300    6.8680 N   0  0  0  0  0  0  0  0  0  0  0  0
   -6.2260    6.5240    7.8670 N   0  0  0  0  0  0  0  0  0  0  0  0
   -7.1930    6.7500    8.7820 C   0  0  0  0  0  0  0  0  0  0  0  0
   -8.4240    6.1170    8.7580 C   0  0  0  0  0  0  0  0  0  0  0  0
   -9.3950    6.3570    9.7450 N   0  0  0  0  0  0  0  0  0  0  0  0
  -10.5620    5.6840    9.7600 C   0  0  0  0  0  0  0  0  0  0  0  0
  -11.5770    5.6820   10.5960 N   0  0  0  0  0  0  0  0  0  0  0  0
  -12.4690    4.7490   10.1080 N   0  0  0  0  0  0  0  0  0  0  0  0
  -12.0160    4.1880    8.9920 N   0  0  0  0  0  0  0  0  0  0  0  0
  -10.8400    4.7900    8.7610 N   0  0  0  0  0  0  0  0  0  0  0  0
   -9.9950    4.4790    7.6090 C   0  0  0  0  0  0  0  0  0  0  0  0
   -8.6630    5.2070    7.7200 C   0  0  0  0  0  0  0  0  0  0  0  0
  -10.7490    4.8610    6.3730 C   0  0  0  0  0  0  0  0  0  0  0  0
  -11.0350    6.2020    6.1170 C   0  0  0  0  0  0  0  0  0  0  0  0
  -11.7370    6.5580    4.9650 C   0  0  0  0  0  0  0  0  0  0  0  0
  -12.1550    5.5730    4.0710 C   0  0  0  0  0  0  0  0  0  0  0  0
  -11.8700    4.2310    4.3270 C   0  0  0  0  0  0  0  0  0  0  0  0
  -11.1660    3.8760    5.4790 C   0  0  0  0  0  0  0  0  0  0  0  0
  -12.0160    7.8660    4.7150 O   0  0  0  0  0  0  0  0  0  0  0  0
   -6.8990    7.6510    9.7710 O   0  0  0  0  0  0  0  0  0  0  0  0
   -6.8537    3.0751    5.3888 N   0  0  0  0  0  0  0  0  0  0  0  0
   -7.3102    2.3910    4.3468 N   0  0  0  0  0  0  0  0  0  0  0  0
   -8.5034    2.9230    4.0193 C   0  0  0  0  0  0  0  0  0  0  0  0
   -9.5023    2.3621    2.6382 S   0  0  0  0  0  0  0  0  0  0  0  0
   -8.8269    3.5771    1.4489 C   0  0  0  0  0  0  0  0  0  0  0  0
   -7.4514    3.1573    0.9211 C   0  0  0  0  0  0  0  0  0  0  0  0
   -7.5187    1.8629    0.2379 N   0  0  0  0  0  0  0  0  0  0  0  0
   -7.0376    0.6665    0.6619 C   0  0  0  0  0  0  0  0  0  0  0  0
   -6.4498    0.5000    1.7635 O   0  0  0  0  0  0  0  0  0  0  0  0
   -7.2518   -0.3133   -0.1992 O   0  0  0  0  0  0  0  0  0  0  0  0
   -7.8770    0.2384   -1.2120 C   0  0  0  0  0  0  0  0  0  0  0  0
   -8.3214   -0.3591   -2.3878 C   0  0  0  0  0  0  0  0  0  0  0  0
   -8.9564    0.4637   -3.3375 C   0  0  0  0  0  0  0  0  0  0  0  0
   -9.1241    1.8463   -3.0909 C   0  0  0  0  0  0  0  0  0  0  0  0
   -8.6629    2.4193   -1.8905 C   0  0  0  0  0  0  0  0  0  0  0  0
   -8.0480    1.5733   -0.9659 C   0  0  0  0  0  0  0  0  0  0  0  0
   -8.8254    3.9329    4.8442 N   0  0  0  0  0  0  0  0  0  0  0  0
   -9.9095    4.8177    4.7218 N   0  0  0  0  0  0  0  0  0  0  0  0
  1  3  4  0
  1 14  4  0
  1  2  1  0
  3  4  4  0
  4  5  4  0
  5  6  4  0
  5 22  1  0
  6  7  1  0
  6 14  4  0
  7  8  1  0
  8  9  4  0
  8 12  4  0
  9 10  4  0
 10 11  4  0
 11 12  4  0
 12 13  1  0
 13 14  1  0
 13 15  1  6
 15 16  4  0
 15 20  4  0
 16 17  4  0
 17 18  4  0
 17 21  1  0
 18 19  4  0
 19 20  4  0
 23 24  4  0
 24 25  4  0
 25 26  1  0
 26 27  1  0
 27 28  1  0
 28 29  1  0
 29 30  4  0
 30 31  2  0
 30 32  4  0
 32 33  4  0
 33 34  4  0
 34 35  4  0
 35 36  4  0
 36 37  4  0
 37 38  4  0
 25 39  4  0
 39 40  1  0
 38 29  4  0
 38 33  4  0
  2 23  4  0
  2 39  4  0
M  END
$$$$

     RDKit          3D

 46 52  0  0  0  0  0  0  0  0999 V2000
   -7.6410    4.9930    6.8080 C   0  0  0  0  0  0  0  0  0  1  0  0
   -7.7310    4.0530    5.7140 C   0  0  0  0  0  0  0  0  0  2  0  0
   -6.4520    5.6300    6.8680 N   0  0  0  0  0  0  0  0  0  0  0  0
   -6.2260    6.5240    7.8670 N   0  0  0  0  0  0  0  0  0  0  0  0
   -7.1930    6.7500    8.7820 C   0  0  0  0  0  0  0  0  0  0  0  0
   -8.4240    6.1170    8.7580 C   0  0  0  0  0  0  0  0  0  0  0  0
   -9.3950    6.3570    9.7450 N   0  0  0  0  0  0  0  0  0  0  0  0
  -10.5620    5.6840    9.7600 C   0  0  0  0  0  0  0  0  0  0  0  0
  -11.5770    5.6820   10.5960 N   0  0  0  0  0  0  0  0  0  0  0  0
  -12.4690    4.7490   10.1080 N   0  0  0  0  0  0  0  0  0  0  0  0
  -12.0160    4.1880    8.9920 N   0  0  0  0  0  0  0  0  0  0  0  0
  -10.8400    4.7900    8.7610 N   0  0  0  0  0  0  0  0  0  0  0  0
   -9.9950    4.4790    7.6090 C   0  0  0  0  0  0  0  0  0  0  0  0
   -8.6630    5.2070    7.7200 C   0  0  0  0  0  0  0  0  0  0  0  0
  -10.7490    4.8610    6.3730 C   0  0  0  0  0  0  0  0  0  0  0  0
  -11.0350    6.2020    6.1170 C   0  0  0  0  0  0  0  0  0  0  0  0
  -11.7370    6.5580    4.9650 C   0  0  0  0  0  0  0  0  0  0  0  0
  -12.1550    5.5730    4.0710 C   0  0  0  0  0  0  0  0  0  0  0  0
  -11.8700    4.2310    4.3270 C   0  0  0  0  0  0  0  0  0  0  0  0
  -11.1660    3.8760    5.4790 C   0  0  0  0  0  0  0  0  0  0  0  0
  -12.0160    7.8660    4.7150 O   0  0  0  0  0  0  0  0  0  0  0  0
   -6.8990    7.6510    9.7710 O   0  0  0  0  0  0  0  0  0  0  0  0
   -6.8713    3.0433    5.4199 N   0  0  0  0  0  0  0  0  0  0  0  0
   -7.3185    2.4047    4.3255 C   0  0  0  0  0  0  0  0  0  0  0  0
   -6.6924    1.3617    3.6448 C   0  0  0  0  0  0  0  0  0  0  0  0
   -7.3075    0.8750    2.4775 C   0  0  0  0  0  0  0  0  0  0  0  0
   -8.5134    1.4453    2.0137 C   0  0  0  0  0  0  0  0  0  0  0  0
   -9.1183    2.5034    2.7161 C   0  0  0  0  0  0  0  0  0  0  0  0
   -8.4965    2.9518    3.8827 C   0  0  0  0  0  0  0  0  0  0  0  0
   -8.8253    3.9757    4.7532 C   0  0  0  0  0  0  0  0  0  0  0  0
   -9.9099    4.9981    4.5519 C   0  0  0  0  0  0  0  0  0  0  0  0
   -9.3911    6.1640    3.7062 C   0  0  0  0  0  0  0  0  0  0  0  0
  -10.4919    7.1617    3.4571 C   0  0  0  0  0  0  0  0  0  0  0  0
  -10.9175    7.8343    4.4363 O   0  0  0  0  0  0  0  0  0  0  0  0
  -11.0902    7.3402    2.1538 N   0  0  0  0  0  0  0  0  0  0  0  0
  -10.3790    6.9326    0.9306 C   0  0  0  0  0  0  0  0  0  0  0  0
  -11.0115    7.5503   -0.3236 C   0  0  0  0  0  0  0  0  0  0  0  0
  -12.5358    7.2749   -0.4270 C   0  0  0  0  0  0  0  0  0  0  0  0
  -12.8356    5.9734   -1.2203 C   0  0  0  0  0  0  0  0  0  0  0  0
  -12.5856    6.1151   -2.6894 N   0  0  0  0  0  0  0  0  0  0  0  0
  -11.6478    5.0751   -3.1624 C   0  0  0  0  0  0  0  0  0  0  0  0
  -13.8233    6.1523   -3.5295 C   0  0  0  0  0  0  0  0  0  0  0  0
  -14.7287    7.3430   -3.1660 C   0  0  0  0  0  0  0  0  0  0  0  0
  -14.6329    4.8356   -3.5301 C   0  0  0  0  0  0  0  0  0  0  0  0
  -13.2278    7.2333    0.9623 C   0  0  0  0  0  0  0  0  0  0  0  0
  -12.4198    7.9574    2.0410 C   0  0  0  0  0  0  0  0  0  0  0  0
  1  3  4  0
  1 14  4  0
  1  2  1  0
  3  4  4  0
  4  5  4  0
  5  6  4  0
  5 22  1  0
  6  7  1  0
  6 14  4  0
  7  8  1  0
  8  9  4  0
  8 12  4  0
  9 10  4  0
 10 11  4  0
 11 12  4  0
 12 13  1  0
 13 14  1  0
 13 15  1  6
 15 16  4  0
 15 20  4  0
 16 17  4  0
 17 18  4  0
 17 21  1  0
 18 19  4  0
 19 20  4  0
 23 24  4  0
 24 25  4  0
 25 26  4  0
 26 27  4  0
 27 28  4  0
 28 29  4  0
 29 30  4  0
 30 31  1  0
 31 32  1  0
 32 33  1  0
 33 34  2  0
 33 35  1  0
 35 36  1  0
 36 37  1  0
 37 38  1  0
 38 39  1  0
 39 40  1  0
 40 41  1  0
 40 42  1  0
 42 43  1  0
 42 44  1  0
 38 45  1  0
 45 46  1  0
 46 35  1  0
 29 24  4  0
  2 23  4  0
  2 30  4  0
M  CHG  1  40   1
M  END
$$$$

     RDKit          3D

 46 52  0  0  0  0  0  0  0  0999 V2000
   -7.6410    4.9930    6.8080 C   0  0  0  0  0  0  0  0  0  1  0  0
   -7.7310    4.0530    5.7140 C   0  0  0  0  0  0  0  0  0  2  0  0
   -6.4520    5.6300    6.8680 N   0  0  0  0  0  0  0  0  0  0  0  0
   -6.2260    6.5240    7.8670 N   0  0  0  0  0  0  0  0  0  0  0  0
   -7.1930    6.7500    8.7820 C   0  0  0  0  0  0  0  0  0  0  0  0
   -8.4240    6.1170    8.7580 C   0  0  0  0  0  0  0  0  0  0  0  0
   -9.3950    6.3570    9.7450 N   0  0  0  0  0  0  0  0  0  0  0  0
  -10.5620    5.6840    9.7600 C   0  0  0  0  0  0  0  0  0  0  0  0
  -11.5770    5.6820   10.5960 N   0  0  0  0  0  0  0  0  0  0  0  0
  -12.4690    4.7490   10.1080 N   0  0  0  0  0  0  0  0  0  0  0  0
  -12.0160    4.1880    8.9920 N   0  0  0  0  0  0  0  0  0  0  0  0
  -10.8400    4.7900    8.7610 N   0  0  0  0  0  0  0  0  0  0  0  0
   -9.9950    4.4790    7.6090 C   0  0  0  0  0  0  0  0  0  0  0  0
   -8.6630    5.2070    7.7200 C   0  0  0  0  0  0  0  0  0  0  0  0
  -10.7490    4.8610    6.3730 C   0  0  0  0  0  0  0  0  0  0  0  0
  -11.0350    6.2020    6.1170 C   0  0  0  0  0  0  0  0  0  0  0  0
  -11.7370    6.5580    4.9650 C   0  0  0  0  0  0  0  0  0  0  0  0
  -12.1550    5.5730    4.0710 C   0  0  0  0  0  0  0  0  0  0  0  0
  -11.8700    4.2310    4.3270 C   0  0  0  0  0  0  0  0  0  0  0  0
  -11.1660    3.8760    5.4790 C   0  0  0  0  0  0  0  0  0  0  0  0
  -12.0160    7.8660    4.7150 O   0  0  0  0  0  0  0  0  0  0  0  0
   -6.8990    7.6510    9.7710 O   0  0  0  0  0  0  0  0  0  0  0  0
   -6.8493    3.0672    5.4072 N   0  0  0  0  0  0  0  0  0  0  0  0
   -7.3389    2.3481    4.3848 C   0  0  0  0  0  0  0  0  0  0  0  0
   -6.7330    1.2632    3.7523 C   0  0  0  0  0  0  0  0  0  0  0  0
   -7.4232    0.6514    2.6904 C   0  0  0  0  0  0  0  0  0  0  0  0
   -8.6891    1.1319    2.2897 C   0  0  0  0  0  0  0  0  0  0  0  0
   -9.2759    2.2286    2.9465 C   0  0  0  0  0  0  0  0  0  0  0  0
   -8.5686    2.8148    3.9979 C   0  0  0  0  0  0  0  0  0  0  0  0
   -8.8767    3.8874    4.8167 C   0  0  0  0  0  0  0  0  0  0  0  0
  -10.0779    4.7908    4.6791 C   0  0  0  0  0  0  0  0  0  0  0  0
   -9.9938    5.6783    3.4229 C   0  0  0  0  0  0  0  0  0  0  0  0
   -9.0250    6.8345    3.5379 C   0  0  0  0  0  0  0  0  0  0  0  0
   -8.3923    7.0053    4.6159 O   0  0  0  0  0  0  0  0  0  0  0  0
   -8.8242    7.7669    2.4498 N   0  0  0  0  0  0  0  0  0  0  0  0
   -7.8672    8.8706    2.6401 C   0  0  0  0  0  0  0  0  0  0  0  0
   -7.8527    9.8328    1.4451 C   0  0  0  0  0  0  0  0  0  0  0  0
   -9.2938   10.1848    1.0339 C   0  0  0  0  0  0  0  0  0  0  0  0
   -9.2888   11.2276   -0.1148 C   0  0  0  0  0  0  0  0  0  0  0  0
  -10.6372   11.8273   -0.3529 N   0  0  0  0  0  0  0  0  0  0  0  0
  -10.7907   13.0145    0.5213 C   0  0  0  0  0  0  0  0  0  0  0  0
  -10.8403   12.1565   -1.8023 C   0  0  0  0  0  0  0  0  0  0  0  0
  -12.0477   13.0909   -2.0485 C   0  0  0  0  0  0  0  0  0  0  0  0
  -11.0697   10.8773   -2.6410 C   0  0  0  0  0  0  0  0  0  0  0  0
  -10.1036    8.9115    0.6562 C   0  0  0  0  0  0  0  0  0  0  0  0
   -9.4624    7.5969    1.1330 C   0  0  0  0  0  0  0  0  0  0  0  0
  1  3  4  0
  1 14  4  0
  1  2  1  0
  3  4  4  0
  4  5  4  0
  5  6  4  0
  5 22  1  0
  6  7  1  0
  6 14  4  0
  7  8  1  0
  8  9  4  0
  8 12  4  0
  9 10  4  0
 10 11  4  0
 11 12  4  0
 12 13  1  0
 13 14  1  0
 13 15  1  6
 15 16  4  0
 15 20  4  0
 16 17  4  0
 17 18  4  0
 17 21  1  0
 18 19  4  0
 19 20  4  0
 23 24  4  0
 24 25  4  0
 25 26  4  0
 26 27  4  0
 27 28  4  0
 28 29  4  0
 29 30  4  0
 30 31  1  0
 31 32  1  0
 32 33  1  0
 33 34  2  0
 33 35  1  0
 35 36  1  0
 36 37  1  0
 37 38  1  0
 38 39  1  0
 39 40  1  0
 40 41  1  0
 40 42  1  0
 42 43  1  0
 42 44  1  0
 38 45  1  0
 45 46  1  0
 46 35  1  0
 29 24  4  0
  2 23  4  0
  2 30  4  0
M  CHG  1  40   1
M  END
$$$$

     RDKit          3D

 36 40  0  0  0  0  0  0  0  0999 V2000
   -7.6410    4.9930    6.8080 C   0  0  0  0  0  0  0  0  0  1  0  0
   -7.7310    4.0530    5.7140 C   0  0  0  0  0  0  0  0  0  2  0  0
   -6.4520    5.6300    6.8680 N   0  0  0  0  0  0  0  0  0  0  0  0
   -6.2260    6.5240    7.8670 N   0  0  0  0  0  0  0  0  0  0  0  0
   -7.1930    6.7500    8.7820 C   0  0  0  0  0  0  0  0  0  0  0  0
   -8.4240    6.1170    8.7580 C   0  0  0  0  0  0  0  0  0  0  0  0
   -9.3950    6.3570    9.7450 N   0  0  0  0  0  0  0  0  0  0  0  0
  -10.5620    5.6840    9.7600 C   0  0  0  0  0  0  0  0  0  0  0  0
  -11.5770    5.6820   10.5960 N   0  0  0  0  0  0  0  0  0  0  0  0
  -12.4690    4.7490   10.1080 N   0  0  0  0  0  0  0  0  0  0  0  0
  -12.0160    4.1880    8.9920 N   0  0  0  0  0  0  0  0  0  0  0  0
  -10.8400    4.7900    8.7610 N   0  0  0  0  0  0  0  0  0  0  0  0
   -9.9950    4.4790    7.6090 C   0  0  0  0  0  0  0  0  0  0  0  0
   -8.6630    5.2070    7.7200 C   0  0  0  0  0  0  0  0  0  0  0  0
  -10.7490    4.8610    6.3730 C   0  0  0  0  0  0  0  0  0  0  0  0
  -11.0350    6.2020    6.1170 C   0  0  0  0  0  0  0  0  0  0  0  0
  -11.7370    6.5580    4.9650 C   0  0  0  0  0  0  0  0  0  0  0  0
  -12.1550    5.5730    4.0710 C   0  0  0  0  0  0  0  0  0  0  0  0
  -11.8700    4.2310    4.3270 C   0  0  0  0  0  0  0  0  0  0  0  0
  -11.1660    3.8760    5.4790 C   0  0  0  0  0  0  0  0  0  0  0  0
  -12.0160    7.8660    4.7150 O   0  0  0  0  0  0  0  0  0  0  0  0
   -6.8990    7.6510    9.7710 O   0  0  0  0  0  0  0  0  0  0  0  0
   -6.9223    2.9577    5.4307 C   0  0  0  0  0  0  0  0  0  0  0  0
   -7.4610    2.3435    4.3110 C   0  0  0  0  0  0  0  0  0  0  0  0
   -6.9430    1.1509    3.6178 C   0  0  0  0  0  0  0  0  0  0  0  0
   -7.5581    0.7241    2.6033 O   0  0  0  0  0  0  0  0  0  0  0  0
   -5.7638    0.4724    4.0825 N   0  0  0  0  0  0  0  0  0  0  0  0
   -5.2618   -0.7571    3.4682 C   0  0  0  0  0  0  0  0  0  0  0  0
   -5.5407   -1.9694    4.3644 C   0  0  0  0  0  0  0  0  0  0  0  0
   -7.0467   -2.2879    4.4549 C   0  0  0  0  0  0  0  0  0  0  0  0
   -7.3342   -3.4008    5.3920 N   0  0  0  0  0  0  0  0  0  0  0  0
   -6.9302   -4.7046    4.8313 C   0  0  0  0  0  0  0  0  0  0  0  0
   -8.7731   -3.4280    5.7106 C   0  0  0  0  0  0  0  0  0  0  0  0
   -8.5686    3.0044    3.9166 N   0  0  0  0  0  0  0  0  0  0  0  0
   -8.7509    4.0174    4.7478 N   0  0  0  0  0  0  0  0  0  0  0  0
   -9.8455    4.9729    4.6068 C   0  0  0  0  0  0  0  0  0  0  0  0
  1  3  4  0
  1 14  4  0
  1  2  1  0
  3  4  4  0
  4  5  4  0
  5  6  4  0
  5 22  1  0
  6  7  1  0
  6 14  4  0
  7  8  1  0
  8  9  4  0
  8 12  4  0
  9 10  4  0
 10 11  4  0
 11 12  4  0
 12 13  1  0
 13 14  1  0
 13 15  1  6
 15 16  4  0
 15 20  4  0
 16 17  4  0
 17 18  4  0
 17 21  1  0
 18 19  4  0
 19 20  4  0
 23 24  4  0
 24 25  1  0
 25 26  2  0
 25 27  1  0
 27 28  1  0
 28 29  1  0
 29 30  1  0
 30 31  1  0
 31 32  1  0
 31 33  1  0
 24 34  4  0
 34 35  4  0
 35 36  1  0
  2 23  4  0
  2 35  4  0
M  CHG  1  31   1
M  END
$$$$

     RDKit          3D

 36 40  0  0  0  0  0  0  0  0999 V2000
   -7.6410    4.9930    6.8080 C   0  0  0  0  0  0  0  0  0  1  0  0
   -7.7310    4.0530    5.7140 C   0  0  0  0  0  0  0  0  0  2  0  0
   -6.4520    5.6300    6.8680 N   0  0  0  0  0  0  0  0  0  0  0  0
   -6.2260    6.5240    7.8670 N   0  0  0  0  0  0  0  0  0  0  0  0
   -7.1930    6.7500    8.7820 C   0  0  0  0  0  0  0  0  0  0  0  0
   -8.4240    6.1170    8.7580 C   0  0  0  0  0  0  0  0  0  0  0  0
   -9.3950    6.3570    9.7450 N   0  0  0  0  0  0  0  0  0  0  0  0
  -10.5620    5.6840    9.7600 C   0  0  0  0  0  0  0  0  0  0  0  0
  -11.5770    5.6820   10.5960 N   0  0  0  0  0  0  0  0  0  0  0  0
  -12.4690    4.7490   10.1080 N   0  0  0  0  0  0  0  0  0  0  0  0
  -12.0160    4.1880    8.9920 N   0  0  0  0  0  0  0  0  0  0  0  0
  -10.8400    4.7900    8.7610 N   0  0  0  0  0  0  0  0  0  0  0  0
   -9.9950    4.4790    7.6090 C   0  0  0  0  0  0  0  0  0  0  0  0
   -8.6630    5.2070    7.7200 C   0  0  0  0  0  0  0  0  0  0  0  0
  -10.7490    4.8610    6.3730 C   0  0  0  0  0  0  0  0  0  0  0  0
  -11.0350    6.2020    6.1170 C   0  0  0  0  0  0  0  0  0  0  0  0
  -11.7370    6.5580    4.9650 C   0  0  0  0  0  0  0  0  0  0  0  0
  -12.1550    5.5730    4.0710 C   0  0  0  0  0  0  0  0  0  0  0  0
  -11.8700    4.2310    4.3270 C   0  0  0  0  0  0  0  0  0  0  0  0
  -11.1660    3.8760    5.4790 C   0  0  0  0  0  0  0  0  0  0  0  0
  -12.0160    7.8660    4.7150 O   0  0  0  0  0  0  0  0  0  0  0  0
   -6.8990    7.6510    9.7710 O   0  0  0  0  0  0  0  0  0  0  0  0
   -6.9336    2.9479    5.4423 C   0  0  0  0  0  0  0  0  0  0  0  0
   -7.4458    2.3656    4.2961 C   0  0  0  0  0  0  0  0  0  0  0  0
   -6.9086    1.1739    3.6195 C   0  0  0  0  0  0  0  0  0  0  0  0
   -5.9605    0.5345    4.1507 O   0  0  0  0  0  0  0  0  0  0  0  0
   -7.4553    0.7411    2.3629 N   0  0  0  0  0  0  0  0  0  0  0  0
   -7.0823   -0.5316    1.7476 C   0  0  0  0  0  0  0  0  0  0  0  0
   -7.9894   -1.6493    2.2810 C   0  0  0  0  0  0  0  0  0  0  0  0
   -7.7383   -3.0152    1.6042 C   0  0  0  0  0  0  0  0  0  0  0  0
   -6.4292   -3.6267    1.9444 N   0  0  0  0  0  0  0  0  0  0  0  0
   -6.2054   -4.8112    1.0938 C   0  0  0  0  0  0  0  0  0  0  0  0
   -6.3545   -4.0169    3.3665 C   0  0  0  0  0  0  0  0  0  0  0  0
   -8.5280    3.0485    3.8742 N   0  0  0  0  0  0  0  0  0  0  0  0
   -8.7215    4.0477    4.7196 N   0  0  0  0  0  0  0  0  0  0  0  0
   -9.7938    5.0260    4.5622 C   0  0  0  0  0  0  0  0  0  0  0  0
  1  3  4  0
  1 14  4  0
  1  2  1  0
  3  4  4  0
  4  5  4  0
  5  6  4  0
  5 22  1  0
  6  7  1  0
  6 14  4  0
  7  8  1  0
  8  9  4  0
  8 12  4  0
  9 10  4  0
 10 11  4  0
 11 12  4  0
 12 13  1  0
 13 14  1  0
 13 15  1  6
 15 16  4  0
 15 20  4  0
 16 17  4  0
 17 18  4  0
 17 21  1  0
 18 19  4  0
 19 20  4  0
 23 24  4  0
 24 25  1  0
 25 26  2  0
 25 27  1  0
 27 28  1  0
 28 29  1  0
 29 30  1  0
 30 31  1  0
 31 32  1  0
 31 33  1  0
 24 34  4  0
 34 35  4  0
 35 36  1  0
  2 23  4  0
  2 35  4  0
M  CHG  1  31   1
M  END
$$$$

     RDKit          3D

 43 48  0  0  0  0  0  0  0  0999 V2000
   -7.6410    4.9930    6.8080 C   0  0  0  0  0  0  0  0  0  1  0  0
   -7.7310    4.0530    5.7140 C   0  0  0  0  0  0  0  0  0  2  0  0
   -6.4520    5.6300    6.8680 N   0  0  0  0  0  0  0  0  0  0  0  0
   -6.2260    6.5240    7.8670 N   0  0  0  0  0  0  0  0  0  0  0  0
   -7.1930    6.7500    8.7820 C   0  0  0  0  0  0  0  0  0  0  0  0
   -8.4240    6.1170    8.7580 C   0  0  0  0  0  0  0  0  0  0  0  0
   -9.3950    6.3570    9.7450 N   0  0  0  0  0  0  0  0  0  0  0  0
  -10.5620    5.6840    9.7600 C   0  0  0  0  0  0  0  0  0  0  0  0
  -11.5770    5.6820   10.5960 N   0  0  0  0  0  0  0  0  0  0  0  0
  -12.4690    4.7490   10.1080 N   0  0  0  0  0  0  0  0  0  0  0  0
  -12.0160    4.1880    8.9920 N   0  0  0  0  0  0  0  0  0  0  0  0
  -10.8400    4.7900    8.7610 N   0  0  0  0  0  0  0  0  0  0  0  0
   -9.9950    4.4790    7.6090 C   0  0  0  0  0  0  0  0  0  0  0  0
   -8.6630    5.2070    7.7200 C   0  0  0  0  0  0  0  0  0  0  0  0
  -10.7490    4.8610    6.3730 C   0  0  0  0  0  0  0  0  0  0  0  0
  -11.0350    6.2020    6.1170 C   0  0  0  0  0  0  0  0  0  0  0  0
  -11.7370    6.5580    4.9650 C   0  0  0  0  0  0  0  0  0  0  0  0
  -12.1550    5.5730    4.0710 C   0  0  0  0  0  0  0  0  0  0  0  0
  -11.8700    4.2310    4.3270 C   0  0  0  0  0  0  0  0  0  0  0  0
  -11.1660    3.8760    5.4790 C   0  0  0  0  0  0  0  0  0  0  0  0
  -12.0160    7.8660    4.7150 O   0  0  0  0  0  0  0  0  0  0  0  0
   -6.8990    7.6510    9.7710 O   0  0  0  0  0  0  0  0  0  0  0  0
   -6.9047    3.0057    5.4821 N   0  0  0  0  0  0  0  0  0  0  0  0
   -7.3243    2.3375    4.4192 N   0  0  0  0  0  0  0  0  0  0  0  0
   -8.4376    2.9570    3.9779 C   0  0  0  0  0  0  0  0  0  0  0  0
   -9.3817    2.3752    2.5627 S   0  0  0  0  0  0  0  0  0  0  0  0
   -8.1061    2.7774    1.3052 C   0  0  0  0  0  0  0  0  0  0  0  0
   -8.0739    4.2753    1.0071 C   0  0  0  0  0  0  0  0  0  0  0  0
   -8.4076    2.0068    0.0411 C   0  0  0  0  0  0  0  0  0  0  0  0
   -9.5359    2.1569   -0.5015 O   0  0  0  0  0  0  0  0  0  0  0  0
   -7.4561    1.1267   -0.5838 N   0  0  0  0  0  0  0  0  0  0  0  0
   -6.0869    0.8963   -0.1170 C   0  0  0  0  0  0  0  0  0  0  0  0
   -6.0498   -0.1282    1.0320 C   0  0  0  0  0  0  0  0  0  0  0  0
   -6.6267   -1.5149    0.6579 C   0  0  0  0  0  0  0  0  0  0  0  0
   -5.8140   -2.1963   -0.4553 C   0  0  0  0  0  0  0  0  0  0  0  0
   -6.6711   -2.4150    1.9009 C   0  0  0  0  0  0  0  0  0  0  0  0
   -8.7658    4.0102    4.7576 N   0  0  0  0  0  0  0  0  0  0  0  0
   -9.9230    4.9097    4.6302 C   0  0  0  0  0  0  0  0  0  0  0  0
   -9.5421    6.2384    3.9564 C   0  0  0  0  0  0  0  0  0  0  0  0
  -10.7016    7.2205    3.9473 C   0  0  0  0  0  0  0  0  0  0  0  0
  -10.0079    8.5527    3.9387 C   0  0  0  0  0  0  0  0  0  0  0  0
   -8.6157    8.2441    4.4707 C   0  0  0  0  0  0  0  0  0  0  0  0
   -8.4611    6.8505    4.6192 O   0  0  0  0  0  0  0  0  0  0  0  0
  1  3  4  0
  1 14  4  0
  1  2  1  0
  3  4  4  0
  4  5  4  0
  5  6  4  0
  5 22  1  0
  6  7  1  0
  6 14  4  0
  7  8  1  0
  8  9  4  0
  8 12  4  0
  9 10  4  0
 10 11  4  0
 11 12  4  0
 12 13  1  0
 13 14  1  0
 13 15  1  6
 15 16  4  0
 15 20  4  0
 16 17  4  0
 17 18  4  0
 17 21  1  0
 18 19  4  0
 19 20  4  0
 23 24  4  0
 24 25  4  0
 25 26  1  0
 26 27  1  0
 27 28  1  0
 27 29  1  0
 29 30  2  0
 29 31  1  0
 31 32  1  0
 32 33  1  0
 33 34  1  0
 34 35  1  0
 34 36  1  0
 25 37  4  0
 37 38  1  0
 38 39  1  0
 39 40  1  0
 40 41  1  0
 41 42  1  0
 42 43  1  0
 43 39  1  0
  2 23  4  0
  2 37  4  0
M  END
$$$$

     RDKit          3D

 43 48  0  0  0  0  0  0  0  0999 V2000
   -7.6410    4.9930    6.8080 C   0  0  0  0  0  0  0  0  0  1  0  0
   -7.7310    4.0530    5.7140 C   0  0  0  0  0  0  0  0  0  2  0  0
   -6.4520    5.6300    6.8680 N   0  0  0  0  0  0  0  0  0  0  0  0
   -6.2260    6.5240    7.8670 N   0  0  0  0  0  0  0  0  0  0  0  0
   -7.1930    6.7500    8.7820 C   0  0  0  0  0  0  0  0  0  0  0  0
   -8.4240    6.1170    8.7580 C   0  0  0  0  0  0  0  0  0  0  0  0
   -9.3950    6.3570    9.7450 N   0  0  0  0  0  0  0  0  0  0  0  0
  -10.5620    5.6840    9.7600 C   0  0  0  0  0  0  0  0  0  0  0  0
  -11.5770    5.6820   10.5960 N   0  0  0  0  0  0  0  0  0  0  0  0
  -12.4690    4.7490   10.1080 N   0  0  0  0  0  0  0  0  0  0  0  0
  -12.0160    4.1880    8.9920 N   0  0  0  0  0  0  0  0  0  0  0  0
  -10.8400    4.7900    8.7610 N   0  0  0  0  0  0  0  0  0  0  0  0
   -9.9950    4.4790    7.6090 C   0  0  0  0  0  0  0  0  0  0  0  0
   -8.6630    5.2070    7.7200 C   0  0  0  0  0  0  0  0  0  0  0  0
  -10.7490    4.8610    6.3730 C   0  0  0  0  0  0  0  0  0  0  0  0
  -11.0350    6.2020    6.1170 C   0  0  0  0  0  0  0  0  0  0  0  0
  -11.7370    6.5580    4.9650 C   0  0  0  0  0  0  0  0  0  0  0  0
  -12.1550    5.5730    4.0710 C   0  0  0  0  0  0  0  0  0  0  0  0
  -11.8700    4.2310    4.3270 C   0  0  0  0  0  0  0  0  0  0  0  0
  -11.1660    3.8760    5.4790 C   0  0  0  0  0  0  0  0  0  0  0  0
  -12.0160    7.8660    4.7150 O   0  0  0  0  0  0  0  0  0  0  0  0
   -6.8990    7.6510    9.7710 O   0  0  0  0  0  0  0  0  0  0  0  0
   -6.8409    3.0924    5.3864 N   0  0  0  0  0  0  0  0  0  0  0  0
   -7.2880    2.4015    4.3484 N   0  0  0  0  0  0  0  0  0  0  0  0
   -8.4962    2.9043    4.0329 C   0  0  0  0  0  0  0  0  0  0  0  0
   -9.4728    2.3237    2.6354 S   0  0  0  0  0  0  0  0  0  0  0  0
  -10.4038    0.9763    3.4793 C   0  0  0  0  0  0  0  0  0  0  0  0
  -10.9955    1.3902    4.8297 C   0  0  0  0  0  0  0  0  0  0  0  0
   -9.5588   -0.2701    3.6168 C   0  0  0  0  0  0  0  0  0  0  0  0
   -8.4640   -0.2070    4.2377 O   0  0  0  0  0  0  0  0  0  0  0  0
   -9.9650   -1.5360    3.0702 N   0  0  0  0  0  0  0  0  0  0  0  0
  -11.3443   -1.8273    2.6651 C   0  0  0  0  0  0  0  0  0  0  0  0
  -11.5811   -3.3368    2.4608 C   0  0  0  0  0  0  0  0  0  0  0  0
  -11.7908   -4.1700    3.7540 C   0  0  0  0  0  0  0  0  0  0  0  0
  -13.0375   -3.7378    4.5422 C   0  0  0  0  0  0  0  0  0  0  0  0
  -10.5547   -4.1950    4.6627 C   0  0  0  0  0  0  0  0  0  0  0  0
   -8.8383    3.9289    4.8447 N   0  0  0  0  0  0  0  0  0  0  0  0
   -9.9681    4.8575    4.6845 C   0  0  0  0  0  0  0  0  0  0  0  0
   -9.4957    6.2566    4.2585 C   0  0  0  0  0  0  0  0  0  0  0  0
   -8.6523    6.2319    2.9949 C   0  0  0  0  0  0  0  0  0  0  0  0
   -8.9018    7.5893    2.4097 C   0  0  0  0  0  0  0  0  0  0  0  0
  -10.2342    8.0053    3.0176 C   0  0  0  0  0  0  0  0  0  0  0  0
  -10.6101    7.0834    4.0183 O   0  0  0  0  0  0  0  0  0  0  0  0
  1  3  4  0
  1 14  4  0
  1  2  1  0
  3  4  4  0
  4  5  4  0
  5  6  4  0
  5 22  1  0
  6  7  1  0
  6 14  4  0
  7  8  1  0
  8  9  4  0
  8 12  4  0
  9 10  4  0
 10 11  4  0
 11 12  4  0
 12 13  1  0
 13 14  1  0
 13 15  1  6
 15 16  4  0
 15 20  4  0
 16 17  4  0
 17 18  4  0
 17 21  1  0
 18 19  4  0
 19 20  4  0
 23 24  4  0
 24 25  4  0
 25 26  1  0
 26 27  1  0
 27 28  1  0
 27 29  1  0
 29 30  2  0
 29 31  1  0
 31 32  1  0
 32 33  1  0
 33 34  1  0
 34 35  1  0
 34 36  1  0
 25 37  4  0
 37 38  1  0
 38 39  1  0
 39 40  1  0
 40 41  1  0
 41 42  1  0
 42 43  1  0
 43 39  1  0
  2 23  4  0
  2 37  4  0
M  END
$$$$

     RDKit          3D

 32 36  0  0  0  0  0  0  0  0999 V2000
   -7.6410    4.9930    6.8080 C   0  0  0  0  0  0  0  0  0  1  0  0
   -7.7310    4.0530    5.7140 C   0  0  0  0  0  0  0  0  0  2  0  0
   -6.4520    5.6300    6.8680 N   0  0  0  0  0  0  0  0  0  0  0  0
   -6.2260    6.5240    7.8670 N   0  0  0  0  0  0  0  0  0  0  0  0
   -7.1930    6.7500    8.7820 C   0  0  0  0  0  0  0  0  0  0  0  0
   -8.4240    6.1170    8.7580 C   0  0  0  0  0  0  0  0  0  0  0  0
   -9.3950    6.3570    9.7450 N   0  0  0  0  0  0  0  0  0  0  0  0
  -10.5620    5.6840    9.7600 C   0  0  0  0  0  0  0  0  0  0  0  0
  -11.5770    5.6820   10.5960 N   0  0  0  0  0  0  0  0  0  0  0  0
  -12.4690    4.7490   10.1080 N   0  0  0  0  0  0  0  0  0  0  0  0
  -12.0160    4.1880    8.9920 N   0  0  0  0  0  0  0  0  0  0  0  0
  -10.8400    4.7900    8.7610 N   0  0  0  0  0  0  0  0  0  0  0  0
   -9.9950    4.4790    7.6090 C   0  0  0  0  0  0  0  0  0  0  0  0
   -8.6630    5.2070    7.7200 C   0  0  0  0  0  0  0  0  0  0  0  0
  -10.7490    4.8610    6.3730 C   0  0  0  0  0  0  0  0  0  0  0  0
  -11.0350    6.2020    6.1170 C   0  0  0  0  0  0  0  0  0  0  0  0
  -11.7370    6.5580    4.9650 C   0  0  0  0  0  0  0  0  0  0  0  0
  -12.1550    5.5730    4.0710 C   0  0  0  0  0  0  0  0  0  0  0  0
  -11.8700    4.2310    4.3270 C   0  0  0  0  0  0  0  0  0  0  0  0
  -11.1660    3.8760    5.4790 C   0  0  0  0  0  0  0  0  0  0  0  0
  -12.0160    7.8660    4.7150 O   0  0  0  0  0  0  0  0  0  0  0  0
   -6.8990    7.6510    9.7710 O   0  0  0  0  0  0  0  0  0  0  0  0
   -8.8826    3.9382    4.8460 C   0  0  0  0  0  0  0  0  0  0  0  0
   -9.9814    4.7996    4.8795 O   0  0  0  0  0  0  0  0  0  0  0  0
  -10.3209    5.6354    3.7796 C   0  0  0  0  0  0  0  0  0  0  0  0
   -8.6299    2.9247    3.9318 C   0  0  0  0  0  0  0  0  0  0  0  0
   -9.5222    2.3827    2.8918 C   0  0  0  0  0  0  0  0  0  0  0  0
  -10.9423    2.4524    3.0281 N   0  0  0  0  0  0  0  0  0  0  0  0
   -9.0257    1.8048    1.8884 O   0  0  0  0  0  0  0  0  0  0  0  0
   -7.3650    2.4479    4.2290 C   0  0  0  0  0  0  0  0  0  0  0  0
   -6.8649    3.1023    5.2979 N   0  0  0  0  0  0  0  0  0  0  0  0
   -5.5433    2.8848    5.8806 C   0  0  0  0  0  0  0  0  0  0  0  0
  1  3  4  0
  1 14  4  0
  1  2  1  0
  3  4  4  0
  4  5  4  0
  5  6  4  0
  5 22  1  0
  6  7  1  0
  6 14  4  0
  7  8  1  0
  8  9  4  0
  8 12  4  0
  9 10  4  0
 10 11  4  0
 11 12  4  0
 12 13  1  0
 13 14  1  0
 13 15  1  6
 15 16  4  0
 15 20  4  0
 16 17  4  0
 17 18  4  0
 17 21  1  0
 18 19  4  0
 19 20  4  0
 23 24  1  0
 24 25  1  0
 23 26  4  0
 26 27  1  0
 27 28  1  0
 27 29  2  0
 26 30  4  0
 30 31  4  0
 31 32  1  0
  2 23  4  0
  2 31  4  0
M  END
$$$$

     RDKit          3D

 32 36  0  0  0  0  0  0  0  0999 V2000
   -7.6410    4.9930    6.8080 C   0  0  0  0  0  0  0  0  0  1  0  0
   -7.7310    4.0530    5.7140 C   0  0  0  0  0  0  0  0  0  2  0  0
   -6.4520    5.6300    6.8680 N   0  0  0  0  0  0  0  0  0  0  0  0
   -6.2260    6.5240    7.8670 N   0  0  0  0  0  0  0  0  0  0  0  0
   -7.1930    6.7500    8.7820 C   0  0  0  0  0  0  0  0  0  0  0  0
   -8.4240    6.1170    8.7580 C   0  0  0  0  0  0  0  0  0  0  0  0
   -9.3950    6.3570    9.7450 N   0  0  0  0  0  0  0  0  0  0  0  0
  -10.5620    5.6840    9.7600 C   0  0  0  0  0  0  0  0  0  0  0  0
  -11.5770    5.6820   10.5960 N   0  0  0  0  0  0  0  0  0  0  0  0
  -12.4690    4.7490   10.1080 N   0  0  0  0  0  0  0  0  0  0  0  0
  -12.0160    4.1880    8.9920 N   0  0  0  0  0  0  0  0  0  0  0  0
  -10.8400    4.7900    8.7610 N   0  0  0  0  0  0  0  0  0  0  0  0
   -9.9950    4.4790    7.6090 C   0  0  0  0  0  0  0  0  0  0  0  0
   -8.6630    5.2070    7.7200 C   0  0  0  0  0  0  0  0  0  0  0  0
  -10.7490    4.8610    6.3730 C   0  0  0  0  0  0  0  0  0  0  0  0
  -11.0350    6.2020    6.1170 C   0  0  0  0  0  0  0  0  0  0  0  0
  -11.7370    6.5580    4.9650 C   0  0  0  0  0  0  0  0  0  0  0  0
  -12.1550    5.5730    4.0710 C   0  0  0  0  0  0  0  0  0  0  0  0
  -11.8700    4.2310    4.3270 C   0  0  0  0  0  0  0  0  0  0  0  0
  -11.1660    3.8760    5.4790 C   0  0  0  0  0  0  0  0  0  0  0  0
  -12.0160    7.8660    4.7150 O   0  0  0  0  0  0  0  0  0  0  0  0
   -6.8990    7.6510    9.7710 O   0  0  0  0  0  0  0  0  0  0  0  0
   -6.9186    2.9790    5.3990 C   0  0  0  0  0  0  0  0  0  0  0  0
   -5.7371    2.7076    6.0925 O   0  0  0  0  0  0  0  0  0  0  0  0
   -4.4659    2.7307    5.4539 C   0  0  0  0  0  0  0  0  0  0  0  0
   -7.4309    2.3117    4.2952 C   0  0  0  0  0  0  0  0  0  0  0  0
   -6.9458    1.0722    3.6626 C   0  0  0  0  0  0  0  0  0  0  0  0
   -6.2127    0.0995    4.4087 N   0  0  0  0  0  0  0  0  0  0  0  0
   -7.2237    0.8430    2.4554 O   0  0  0  0  0  0  0  0  0  0  0  0
   -8.5761    2.9999    3.9314 C   0  0  0  0  0  0  0  0  0  0  0  0
   -8.7824    4.0339    4.7739 N   0  0  0  0  0  0  0  0  0  0  0  0
   -9.8781    4.9941    4.6640 C   0  0  0  0  0  0  0  0  0  0  0  0
  1  3  4  0
  1 14  4  0
  1  2  1  0
  3  4  4  0
  4  5  4  0
  5  6  4  0
  5 22  1  0
  6  7  1  0
  6 14  4  0
  7  8  1  0
  8  9  4  0
  8 12  4  0
  9 10  4  0
 10 11  4  0
 11 12  4  0
 12 13  1  0
 13 14  1  0
 13 15  1  6
 15 16  4  0
 15 20  4  0
 16 17  4  0
 17 18  4  0
 17 21  1  0
 18 19  4  0
 19 20  4  0
 23 24  1  0
 24 25  1  0
 23 26  4  0
 26 27  1  0
 27 28  1  0
 27 29  2  0
 26 30  4  0
 30 31  4  0
 31 32  1  0
  2 23  4  0
  2 31  4  0
M  END
$$$$

     RDKit          3D

 41 48  0  0  0  0  0  0  0  0999 V2000
   -7.6410    4.9930    6.8080 C   0  0  0  0  0  0  0  0  0  1  0  0
   -7.7310    4.0530    5.7140 C   0  0  0  0  0  0  0  0  0  2  0  0
   -6.4520    5.6300    6.8680 N   0  0  0  0  0  0  0  0  0  0  0  0
   -6.2260    6.5240    7.8670 N   0  0  0  0  0  0  0  0  0  0  0  0
   -7.1930    6.7500    8.7820 C   0  0  0  0  0  0  0  0  0  0  0  0
   -8.4240    6.1170    8.7580 C   0  0  0  0  0  0  0  0  0  0  0  0
   -9.3950    6.3570    9.7450 N   0  0  0  0  0  0  0  0  0  0  0  0
  -10.5620    5.6840    9.7600 C   0  0  0  0  0  0  0  0  0  0  0  0
  -11.5770    5.6820   10.5960 N   0  0  0  0  0  0  0  0  0  0  0  0
  -12.4690    4.7490   10.1080 N   0  0  0  0  0  0  0  0  0  0  0  0
  -12.0160    4.1880    8.9920 N   0  0  0  0  0  0  0  0  0  0  0  0
  -10.8400    4.7900    8.7610 N   0  0  0  0  0  0  0  0  0  0  0  0
   -9.9950    4.4790    7.6090 C   0  0  0  0  0  0  0  0  0  0  0  0
   -8.6630    5.2070    7.7200 C   0  0  0  0  0  0  0  0  0  0  0  0
  -10.7490    4.8610    6.3730 C   0  0  0  0  0  0  0  0  0  0  0  0
  -11.0350    6.2020    6.1170 C   0  0  0  0  0  0  0  0  0  0  0  0
  -11.7370    6.5580    4.9650 C   0  0  0  0  0  0  0  0  0  0  0  0
  -12.1550    5.5730    4.0710 C   0  0  0  0  0  0  0  0  0  0  0  0
  -11.8700    4.2310    4.3270 C   0  0  0  0  0  0  0  0  0  0  0  0
  -11.1660    3.8760    5.4790 C   0  0  0  0  0  0  0  0  0  0  0  0
  -12.0160    7.8660    4.7150 O   0  0  0  0  0  0  0  0  0  0  0  0
   -6.8990    7.6510    9.7710 O   0  0  0  0  0  0  0  0  0  0  0  0
   -6.8830    2.9533    5.4659 C   0  0  0  0  0  0  0  0  0  0  0  0
   -7.5001    1.9200    4.2516 S   0  0  0  0  0  0  0  0  0  0  0  0
   -8.8661    2.8724    4.0787 C   0  0  0  0  0  0  0  0  0  0  0  0
   -9.9215    2.7685    3.2545 N   0  0  0  0  0  0  0  0  0  0  0  0
  -10.6467    3.8736    3.5791 C   0  0  0  0  0  0  0  0  0  1  0  0
  -11.9266    4.1985    2.9163 C   0  0  0  0  0  0  0  0  0  2  0  0
  -13.0196    4.7236    3.6551 C   0  0  0  0  0  0  0  0  0  0  0  0
  -14.2378    5.0199    3.0173 C   0  0  0  0  0  0  0  0  0  0  0  0
  -14.3349    4.7681    1.6530 C   0  0  0  0  0  0  0  0  0  0  0  0
  -13.3020    4.2494    0.9434 C   0  0  0  0  0  0  0  0  0  0  0  0
  -12.0805    3.9420    1.5353 C   0  0  0  0  0  0  0  0  0  0  0  0
  -13.6797    4.1002   -0.3771 O   0  0  0  0  0  0  0  0  0  0  0  0
  -15.0346    4.5542   -0.5041 C   0  0  0  0  0  0  0  0  0  0  0  0
  -15.4142    4.9711    0.8149 O   0  0  0  0  0  0  0  0  0  0  0  0
   -9.9804    4.6262    4.5658 C   0  0  0  0  0  0  0  0  0  0  0  0
  -10.3043    6.0186    5.0494 C   0  0  0  0  0  0  0  0  0  0  0  0
  -10.6284    6.9092    3.9289 C   0  0  0  0  0  0  0  0  0  0  0  0
  -10.8844    7.6113    3.0453 N   0  0  0  0  0  0  0  0  0  0  0  0
   -8.8729    3.9259    4.8750 N   0  0  0  0  0  0  0  0  0  0  0  0
  1  3  4  0
  1 14  4  0
  1  2  1  0
  3  4  4  0
  4  5  4  0
  5  6  4  0
  5 22  1  0
  6  7  1  0
  6 14  4  0
  7  8  1  0
  8  9  4  0
  8 12  4  0
  9 10  4  0
 10 11  4  0
 11 12  4  0
 12 13  1  0
 13 14  1  0
 13 15  1  6
 15 16  4  0
 15 20  4  0
 16 17  4  0
 17 18  4  0
 17 21  1  0
 18 19  4  0
 19 20  4  0
 23 24  4  0
 24 25  4  0
 25 26  4  0
 26 27  4  0
 27 28  1  0
 28 29  4  0
 29 30  4  0
 30 31  4  0
 31 32  4  0
 32 33  4  0
 32 34  1  0
 34 35  1  0
 35 36  1  0
 27 37  4  0
 37 38  1  0
 38 39  1  0
 39 40  3  0
 37 41  4  0
 41 25  4  0
 33 28  4  0
 36 31  1  0
  2 23  4  0
  2 41  4  0
M  END
$$$$

     RDKit          3D

 31 36  0  0  0  0  0  0  0  0999 V2000
   -7.6410    4.9930    6.8080 C   0  0  0  0  0  0  0  0  0  1  0  0
   -7.7310    4.0530    5.7140 C   0  0  0  0  0  0  0  0  0  2  0  0
   -6.4520    5.6300    6.8680 N   0  0  0  0  0  0  0  0  0  0  0  0
   -6.2260    6.5240    7.8670 N   0  0  0  0  0  0  0  0  0  0  0  0
   -7.1930    6.7500    8.7820 C   0  0  0  0  0  0  0  0  0  0  0  0
   -8.4240    6.1170    8.7580 C   0  0  0  0  0  0  0  0  0  0  0  0
   -9.3950    6.3570    9.7450 N   0  0  0  0  0  0  0  0  0  0  0  0
  -10.5620    5.6840    9.7600 C   0  0  0  0  0  0  0  0  0  0  0  0
  -11.5770    5.6820   10.5960 N   0  0  0  0  0  0  0  0  0  0  0  0
  -12.4690    4.7490   10.1080 N   0  0  0  0  0  0  0  0  0  0  0  0
  -12.0160    4.1880    8.9920 N   0  0  0  0  0  0  0  0  0  0  0  0
  -10.8400    4.7900    8.7610 N   0  0  0  0  0  0  0  0  0  0  0  0
   -9.9950    4.4790    7.6090 C   0  0  0  0  0  0  0  0  0  0  0  0
   -8.6630    5.2070    7.7200 C   0  0  0  0  0  0  0  0  0  0  0  0
  -10.7490    4.8610    6.3730 C   0  0  0  0  0  0  0  0  0  0  0  0
  -11.0350    6.2020    6.1170 C   0  0  0  0  0  0  0  0  0  0  0  0
  -11.7370    6.5580    4.9650 C   0  0  0  0  0  0  0  0  0  0  0  0
  -12.1550    5.5730    4.0710 C   0  0  0  0  0  0  0  0  0  0  0  0
  -11.8700    4.2310    4.3270 C   0  0  0  0  0  0  0  0  0  0  0  0
  -11.1660    3.8760    5.4790 C   0  0  0  0  0  0  0  0  0  0  0  0
  -12.0160    7.8660    4.7150 O   0  0  0  0  0  0  0  0  0  0  0  0
   -6.8990    7.6510    9.7710 O   0  0  0  0  0  0  0  0  0  0  0  0
   -6.9238    2.8863    5.5125 C   0  0  0  0  0  0  0  0  0  0  0  0
   -5.8980    2.5986    6.4144 O   0  0  0  0  0  0  0  0  0  0  0  0
   -7.1110    2.0164    4.4135 C   0  0  0  0  0  0  0  0  0  0  0  0
   -8.1577    2.2272    3.5003 C   0  0  0  0  0  0  0  0  0  0  0  0
   -8.9948    3.3157    3.7129 C   0  0  0  0  0  0  0  0  0  0  0  0
   -8.8205    4.1655    4.7570 C   0  0  0  0  0  0  0  0  0  0  0  0
   -9.7856    5.1550    4.7034 O   0  0  0  0  0  0  0  0  0  0  0  0
  -10.6178    4.9067    3.5627 C   0  0  0  0  0  0  0  0  0  0  0  0
  -10.0775    3.7244    2.9583 O   0  0  0  0  0  0  0  0  0  0  0  0
  1  3  4  0
  1 14  4  0
  1  2  1  0
  3  4  4  0
  4  5  4  0
  5  6  4  0
  5 22  1  0
  6  7  1  0
  6 14  4  0
  7  8  1  0
  8  9  4  0
  8 12  4  0
  9 10  4  0
 10 11  4  0
 11 12  4  0
 12 13  1  0
 13 14  1  0
 13 15  1  6
 15 16  4  0
 15 20  4  0
 16 17  4  0
 17 18  4  0
 17 21  1  0
 18 19  4  0
 19 20  4  0
 23 24  1  0
 23 25  4  0
 25 26  4  0
 26 27  4  0
 27 28  4  0
 28 29  1  0
 29 30  1  0
 30 31  1  0
 31 27  1  0
  2 23  4  0
  2 28  4  0
M  END
$$$$

     RDKit          3D

 31 36  0  0  0  0  0  0  0  0999 V2000
   -7.6410    4.9930    6.8080 C   0  0  0  0  0  0  0  0  0  1  0  0
   -7.7310    4.0530    5.7140 C   0  0  0  0  0  0  0  0  0  2  0  0
   -6.4520    5.6300    6.8680 N   0  0  0  0  0  0  0  0  0  0  0  0
   -6.2260    6.5240    7.8670 N   0  0  0  0  0  0  0  0  0  0  0  0
   -7.1930    6.7500    8.7820 C   0  0  0  0  0  0  0  0  0  0  0  0
   -8.4240    6.1170    8.7580 C   0  0  0  0  0  0  0  0  0  0  0  0
   -9.3950    6.3570    9.7450 N   0  0  0  0  0  0  0  0  0  0  0  0
  -10.5620    5.6840    9.7600 C   0  0  0  0  0  0  0  0  0  0  0  0
  -11.5770    5.6820   10.5960 N   0  0  0  0  0  0  0  0  0  0  0  0
  -12.4690    4.7490   10.1080 N   0  0  0  0  0  0  0  0  0  0  0  0
  -12.0160    4.1880    8.9920 N   0  0  0  0  0  0  0  0  0  0  0  0
  -10.8400    4.7900    8.7610 N   0  0  0  0  0  0  0  0  0  0  0  0
   -9.9950    4.4790    7.6090 C   0  0  0  0  0  0  0  0  0  0  0  0
   -8.6630    5.2070    7.7200 C   0  0  0  0  0  0  0  0  0  0  0  0
  -10.7490    4.8610    6.3730 C   0  0  0  0  0  0  0  0  0  0  0  0
  -11.0350    6.2020    6.1170 C   0  0  0  0  0  0  0  0  0  0  0  0
  -11.7370    6.5580    4.9650 C   0  0  0  0  0  0  0  0  0  0  0  0
  -12.1550    5.5730    4.0710 C   0  0  0  0  0  0  0  0  0  0  0  0
  -11.8700    4.2310    4.3270 C   0  0  0  0  0  0  0  0  0  0  0  0
  -11.1660    3.8760    5.4790 C   0  0  0  0  0  0  0  0  0  0  0  0
  -12.0160    7.8660    4.7150 O   0  0  0  0  0  0  0  0  0  0  0  0
   -6.8990    7.6510    9.7710 O   0  0  0  0  0  0  0  0  0  0  0  0
   -8.8587    4.0684    4.7527 C   0  0  0  0  0  0  0  0  0  0  0  0
   -9.7839    5.1137    4.7612 O   0  0  0  0  0  0  0  0  0  0  0  0
   -8.9903    3.0678    3.7622 C   0  0  0  0  0  0  0  0  0  0  0  0
   -8.0616    2.0173    3.6738 C   0  0  0  0  0  0  0  0  0  0  0  0
   -7.0178    1.9954    4.5905 C   0  0  0  0  0  0  0  0  0  0  0  0
   -6.8846    2.9429    5.5534 C   0  0  0  0  0  0  0  0  0  0  0  0
   -5.7722    2.6545    6.3235 O   0  0  0  0  0  0  0  0  0  0  0  0
   -5.1689    1.4603    5.8084 C   0  0  0  0  0  0  0  0  0  0  0  0
   -5.9961    1.0724    4.7036 O   0  0  0  0  0  0  0  0  0  0  0  0
  1  3  4  0
  1 14  4  0
  1  2  1  0
  3  4  4  0
  4  5  4  0
  5  6  4  0
  5 22  1  0
  6  7  1  0
  6 14  4  0
  7  8  1  0
  8  9  4  0
  8 12  4  0
  9 10  4  0
 10 11  4  0
 11 12  4  0
 12 13  1  0
 13 14  1  0
 13 15  1  6
 15 16  4  0
 15 20  4  0
 16 17  4  0
 17 18  4  0
 17 21  1  0
 18 19  4  0
 19 20  4  0
 23 24  1  0
 23 25  4  0
 25 26  4  0
 26 27  4  0
 27 28  4  0
 28 29  1  0
 29 30  1  0
 30 31  1  0
 31 27  1  0
  2 23  4  0
  2 28  4  0
M  END
$$$$

     RDKit          3D

 37 42  0  0  0  0  0  0  0  0999 V2000
   -7.6410    4.9930    6.8080 C   0  0  0  0  0  0  0  0  0  1  0  0
   -7.7310    4.0530    5.7140 C   0  0  0  0  0  0  0  0  0  2  0  0
   -6.4520    5.6300    6.8680 N   0  0  0  0  0  0  0  0  0  0  0  0
   -6.2260    6.5240    7.8670 N   0  0  0  0  0  0  0  0  0  0  0  0
   -7.1930    6.7500    8.7820 C   0  0  0  0  0  0  0  0  0  0  0  0
   -8.4240    6.1170    8.7580 C   0  0  0  0  0  0  0  0  0  0  0  0
   -9.3950    6.3570    9.7450 N   0  0  0  0  0  0  0  0  0  0  0  0
  -10.5620    5.6840    9.7600 C   0  0  0  0  0  0  0  0  0  0  0  0
  -11.5770    5.6820   10.5960 N   0  0  0  0  0  0  0  0  0  0  0  0
  -12.4690    4.7490   10.1080 N   0  0  0  0  0  0  0  0  0  0  0  0
  -12.0160    4.1880    8.9920 N   0  0  0  0  0  0  0  0  0  0  0  0
  -10.8400    4.7900    8.7610 N   0  0  0  0  0  0  0  0  0  0  0  0
   -9.9950    4.4790    7.6090 C   0  0  0  0  0  0  0  0  0  0  0  0
   -8.6630    5.2070    7.7200 C   0  0  0  0  0  0  0  0  0  0  0  0
  -10.7490    4.8610    6.3730 C   0  0  0  0  0  0  0  0  0  0  0  0
  -11.0350    6.2020    6.1170 C   0  0  0  0  0  0  0  0  0  0  0  0
  -11.7370    6.5580    4.9650 C   0  0  0  0  0  0  0  0  0  0  0  0
  -12.1550    5.5730    4.0710 C   0  0  0  0  0  0  0  0  0  0  0  0
  -11.8700    4.2310    4.3270 C   0  0  0  0  0  0  0  0  0  0  0  0
  -11.1660    3.8760    5.4790 C   0  0  0  0  0  0  0  0  0  0  0  0
  -12.0160    7.8660    4.7150 O   0  0  0  0  0  0  0  0  0  0  0  0
   -6.8990    7.6510    9.7710 O   0  0  0  0  0  0  0  0  0  0  0  0
   -7.0052    2.8536    5.6268 C   0  0  0  0  0  0  0  0  0  0  0  0
   -7.4537    1.9916    4.2587 S   0  0  0  0  0  0  0  0  0  0  0  0
   -8.6267    3.1062    3.7937 C   0  0  0  0  0  0  0  0  0  0  0  0
   -9.3707    3.0303    2.5659 N   0  0  0  0  0  0  0  0  0  0  0  0
   -9.6992    1.7936    1.9127 C   0  0  0  0  0  0  0  0  0  0  0  0
   -9.7857    1.7532    0.5126 C   0  0  0  0  0  0  0  0  0  0  0  0
  -10.1308    0.5657   -0.1407 C   0  0  0  0  0  0  0  0  0  0  0  0
  -10.4070   -0.5865    0.6002 C   0  0  0  0  0  0  0  0  0  0  0  0
  -10.7424   -1.7369   -0.0343 F   0  0  0  0  0  0  0  0  0  0  0  0
  -10.3433   -0.5509    1.9958 C   0  0  0  0  0  0  0  0  0  0  0  0
   -9.9975    0.6344    2.6520 C   0  0  0  0  0  0  0  0  0  0  0  0
   -8.6830    4.1538    4.6604 N   0  0  0  0  0  0  0  0  0  0  0  0
   -9.5406    5.3358    4.4711 C   0  0  0  0  0  0  0  0  0  0  0  0
   -8.7506    6.5003    3.8658 C   0  0  0  0  0  0  0  0  0  0  0  0
   -8.2905    6.1781    2.5816 O   0  0  0  0  0  0  0  0  0  0  0  0
  1  3  4  0
  1 14  4  0
  1  2  1  0
  3  4  4  0
  4  5  4  0
  5  6  4  0
  5 22  1  0
  6  7  1  0
  6 14  4  0
  7  8  1  0
  8  9  4  0
  8 12  4  0
  9 10  4  0
 10 11  4  0
 11 12  4  0
 12 13  1  0
 13 14  1  0
 13 15  1  6
 15 16  4  0
 15 20  4  0
 16 17  4  0
 17 18  4  0
 17 21  1  0
 18 19  4  0
 19 20  4  0
 23 24  4  0
 24 25  4  0
 25 26  1  0
 26 27  1  0
 27 28  4  0
 28 29  4  0
 29 30  4  0
 30 31  1  0
 30 32  4  0
 32 33  4  0
 25 34  4  0
 34 35  1  0
 35 36  1  0
 36 37  1  0
 33 27  4  0
  2 23  4  0
  2 34  4  0
M  CHG  1  34   1
M  END
$$$$

     RDKit          3D

 31 36  0  0  0  0  0  0  0  0999 V2000
   -7.6410    4.9930    6.8080 C   0  0  0  0  0  0  0  0  0  1  0  0
   -7.7310    4.0530    5.7140 C   0  0  0  0  0  0  0  0  0  2  0  0
   -6.4520    5.6300    6.8680 N   0  0  0  0  0  0  0  0  0  0  0  0
   -6.2260    6.5240    7.8670 N   0  0  0  0  0  0  0  0  0  0  0  0
   -7.1930    6.7500    8.7820 C   0  0  0  0  0  0  0  0  0  0  0  0
   -8.4240    6.1170    8.7580 C   0  0  0  0  0  0  0  0  0  0  0  0
   -9.3950    6.3570    9.7450 N   0  0  0  0  0  0  0  0  0  0  0  0
  -10.5620    5.6840    9.7600 C   0  0  0  0  0  0  0  0  0  0  0  0
  -11.5770    5.6820   10.5960 N   0  0  0  0  0  0  0  0  0  0  0  0
  -12.4690    4.7490   10.1080 N   0  0  0  0  0  0  0  0  0  0  0  0
  -12.0160    4.1880    8.9920 N   0  0  0  0  0  0  0  0  0  0  0  0
  -10.8400    4.7900    8.7610 N   0  0  0  0  0  0  0  0  0  0  0  0
   -9.9950    4.4790    7.6090 C   0  0  0  0  0  0  0  0  0  0  0  0
   -8.6630    5.2070    7.7200 C   0  0  0  0  0  0  0  0  0  0  0  0
  -10.7490    4.8610    6.3730 C   0  0  0  0  0  0  0  0  0  0  0  0
  -11.0350    6.2020    6.1170 C   0  0  0  0  0  0  0  0  0  0  0  0
  -11.7370    6.5580    4.9650 C   0  0  0  0  0  0  0  0  0  0  0  0
  -12.1550    5.5730    4.0710 C   0  0  0  0  0  0  0  0  0  0  0  0
  -11.8700    4.2310    4.3270 C   0  0  0  0  0  0  0  0  0  0  0  0
  -11.1660    3.8760    5.4790 C   0  0  0  0  0  0  0  0  0  0  0  0
  -12.0160    7.8660    4.7150 O   0  0  0  0  0  0  0  0  0  0  0  0
   -6.8990    7.6510    9.7710 O   0  0  0  0  0  0  0  0  0  0  0  0
   -6.8354    3.0041    5.4749 C   0  0  0  0  0  0  0  0  0  0  0  0
   -7.0210    2.0003    4.5245 C   0  0  0  0  0  0  0  0  0  0  0  0
   -8.1873    1.9604    3.7630 C   0  0  0  0  0  0  0  0  0  0  0  0
   -9.1727    2.9414    3.9335 C   0  0  0  0  0  0  0  0  0  0  0  0
  -10.3366    2.9190    3.1517 C   0  0  0  0  0  0  0  0  0  0  0  0
  -11.2738    3.8911    3.2937 N   0  0  0  0  0  0  0  0  0  0  0  0
  -11.1201    4.9075    4.1804 C   0  0  0  0  0  0  0  0  0  0  0  0
   -9.9815    4.9749    4.9852 C   0  0  0  0  0  0  0  0  0  0  0  0
   -8.9939    3.9746    4.8896 C   0  0  0  0  0  0  0  0  0  0  0  0
  1  3  4  0
  1 14  4  0
  1  2  1  0
  3  4  4  0
  4  5  4  0
  5  6  4  0
  5 22  1  0
  6  7  1  0
  6 14  4  0
  7  8  1  0
  8  9  4  0
  8 12  4  0
  9 10  4  0
 10 11  4  0
 11 12  4  0
 12 13  1  0
 13 14  1  0
 13 15  1  6
 15 16  4  0
 15 20  4  0
 16 17  4  0
 17 18  4  0
 17 21  1  0
 18 19  4  0
 19 20  4  0
 23 24  4  0
 24 25  4  0
 25 26  4  0
 26 27  4  0
 27 28  4  0
 28 29  4  0
 29 30  4  0
 30 31  4  0
 31 26  4  0
  2 23  4  0
  2 31  4  0
M  END
$$$$

     RDKit          3D

 40 46  0  0  0  0  0  0  0  0999 V2000
   -7.6410    4.9930    6.8080 C   0  0  0  0  0  0  0  0  0  1  0  0
   -7.7310    4.0530    5.7140 C   0  0  0  0  0  0  0  0  0  2  0  0
   -6.4520    5.6300    6.8680 N   0  0  0  0  0  0  0  0  0  0  0  0
   -6.2260    6.5240    7.8670 N   0  0  0  0  0  0  0  0  0  0  0  0
   -7.1930    6.7500    8.7820 C   0  0  0  0  0  0  0  0  0  0  0  0
   -8.4240    6.1170    8.7580 C   0  0  0  0  0  0  0  0  0  0  0  0
   -9.3950    6.3570    9.7450 N   0  0  0  0  0  0  0  0  0  0  0  0
  -10.5620    5.6840    9.7600 C   0  0  0  0  0  0  0  0  0  0  0  0
  -11.5770    5.6820   10.5960 N   0  0  0  0  0  0  0  0  0  0  0  0
  -12.4690    4.7490   10.1080 N   0  0  0  0  0  0  0  0  0  0  0  0
  -12.0160    4.1880    8.9920 N   0  0  0  0  0  0  0  0  0  0  0  0
  -10.8400    4.7900    8.7610 N   0  0  0  0  0  0  0  0  0  0  0  0
   -9.9950    4.4790    7.6090 C   0  0  0  0  0  0  0  0  0  0  0  0
   -8.6630    5.2070    7.7200 C   0  0  0  0  0  0  0  0  0  0  0  0
  -10.7490    4.8610    6.3730 C   0  0  0  0  0  0  0  0  0  0  0  0
  -11.0350    6.2020    6.1170 C   0  0  0  0  0  0  0  0  0  0  0  0
  -11.7370    6.5580    4.9650 C   0  0  0  0  0  0  0  0  0  0  0  0
  -12.1550    5.5730    4.0710 C   0  0  0  0  0  0  0  0  0  0  0  0
  -11.8700    4.2310    4.3270 C   0  0  0  0  0  0  0  0  0  0  0  0
  -11.1660    3.8760    5.4790 C   0  0  0  0  0  0  0  0  0  0  0  0
  -12.0160    7.8660    4.7150 O   0  0  0  0  0  0  0  0  0  0  0  0
   -6.8990    7.6510    9.7710 O   0  0  0  0  0  0  0  0  0  0  0  0
   -6.9349    2.9055    5.5704 C   0  0  0  0  0  0  0  0  0  0  0  0
   -7.3716    2.0480    4.1944 S   0  0  0  0  0  0  0  0  0  0  0  0
   -8.6303    3.0992    3.7978 C   0  0  0  0  0  0  0  0  0  0  0  0
   -9.3596    3.0397    2.7192 N   0  0  0  0  0  0  0  0  0  0  0  0
   -9.3281    2.0208    1.7087 C   0  0  0  0  0  0  0  0  0  0  0  0
   -9.4081    2.4041    0.3620 C   0  0  0  0  0  0  0  0  0  0  0  0
   -9.3969    1.4351   -0.6483 C   0  0  0  0  0  0  0  0  0  0  0  0
   -9.3605    0.0771   -0.3170 C   0  0  0  0  0  0  0  0  0  0  0  0
   -9.3174   -0.3162    1.0262 C   0  0  0  0  0  0  0  0  0  0  0  0
   -9.3002    0.6493    2.0391 C   0  0  0  0  0  0  0  0  0  0  0  0
   -8.7286    4.1156    4.6946 N   0  0  0  0  0  0  0  0  0  0  0  0
   -9.6619    5.2434    4.5205 C   0  0  0  0  0  0  0  0  0  0  0  0
   -9.1736    6.1723    3.4402 C   0  0  0  0  0  0  0  0  0  0  0  0
   -9.8479    6.2662    2.2129 C   0  0  0  0  0  0  0  0  0  0  0  0
   -9.3821    7.1349    1.2255 C   0  0  0  0  0  0  0  0  0  0  0  0
   -8.2377    7.8981    1.4692 C   0  0  0  0  0  0  0  0  0  0  0  0
   -7.5895    7.7943    2.6591 N   0  0  0  0  0  0  0  0  0  0  0  0
   -8.0272    6.9606    3.6402 C   0  0  0  0  0  0  0  0  0  0  0  0
  1  3  4  0
  1 14  4  0
  1  2  1  0
  3  4  4  0
  4  5  4  0
  5  6  4  0
  5 22  1  0
  6  7  1  0
  6 14  4  0
  7  8  1  0
  8  9  4  0
  8 12  4  0
  9 10  4  0
 10 11  4  0
 11 12  4  0
 12 13  1  0
 13 14  1  0
 13 15  1  6
 15 16  4  0
 15 20  4  0
 16 17  4  0
 17 18  4  0
 17 21  1  0
 18 19  4  0
 19 20  4  0
 23 24  4  0
 24 25  4  0
 25 26  2  3
 26 27  1  0
 27 28  4  0
 28 29  4  0
 29 30  4  0
 30 31  4  0
 31 32  4  0
 25 33  4  0
 33 34  1  0
 34 35  1  0
 35 36  4  0
 36 37  4  0
 37 38  4  0
 38 39  4  0
 39 40  4  0
 40 35  4  0
 32 27  4  0
  2 23  4  0
  2 33  4  0
M  END
$$$$

     RDKit          3D

 42 48  0  0  0  0  0  0  0  0999 V2000
   -7.6410    4.9930    6.8080 C   0  0  0  0  0  0  0  0  0  1  0  0
   -7.7310    4.0530    5.7140 C   0  0  0  0  0  0  0  0  0  2  0  0
   -6.4520    5.6300    6.8680 N   0  0  0  0  0  0  0  0  0  0  0  0
   -6.2260    6.5240    7.8670 N   0  0  0  0  0  0  0  0  0  0  0  0
   -7.1930    6.7500    8.7820 C   0  0  0  0  0  0  0  0  0  0  0  0
   -8.4240    6.1170    8.7580 C   0  0  0  0  0  0  0  0  0  0  0  0
   -9.3950    6.3570    9.7450 N   0  0  0  0  0  0  0  0  0  0  0  0
  -10.5620    5.6840    9.7600 C   0  0  0  0  0  0  0  0  0  0  0  0
  -11.5770    5.6820   10.5960 N   0  0  0  0  0  0  0  0  0  0  0  0
  -12.4690    4.7490   10.1080 N   0  0  0  0  0  0  0  0  0  0  0  0
  -12.0160    4.1880    8.9920 N   0  0  0  0  0  0  0  0  0  0  0  0
  -10.8400    4.7900    8.7610 N   0  0  0  0  0  0  0  0  0  0  0  0
   -9.9950    4.4790    7.6090 C   0  0  0  0  0  0  0  0  0  0  0  0
   -8.6630    5.2070    7.7200 C   0  0  0  0  0  0  0  0  0  0  0  0
  -10.7490    4.8610    6.3730 C   0  0  0  0  0  0  0  0  0  0  0  0
  -11.0350    6.2020    6.1170 C   0  0  0  0  0  0  0  0  0  0  0  0
  -11.7370    6.5580    4.9650 C   0  0  0  0  0  0  0  0  0  0  0  0
  -12.1550    5.5730    4.0710 C   0  0  0  0  0  0  0  0  0  0  0  0
  -11.8700    4.2310    4.3270 C   0  0  0  0  0  0  0  0  0  0  0  0
  -11.1660    3.8760    5.4790 C   0  0  0  0  0  0  0  0  0  0  0  0
  -12.0160    7.8660    4.7150 O   0  0  0  0  0  0  0  0  0  0  0  0
   -6.8990    7.6510    9.7710 O   0  0  0  0  0  0  0  0  0  0  0  0
   -6.9427    2.8821    5.7136 C   0  0  0  0  0  0  0  0  0  0  0  0
   -7.1373    1.8300    4.8118 C   0  0  0  0  0  0  0  0  0  1  0  0
   -6.2664    0.6320    4.8304 C   0  0  0  0  0  0  0  0  0  2  0  0
   -6.8584   -0.6394    4.7313 C   0  0  0  0  0  0  0  0  0  0  0  0
   -6.0863   -1.8035    4.8119 C   0  0  0  0  0  0  0  0  0  0  0  0
   -6.7375   -3.0424    4.7151 O   0  0  0  0  0  0  0  0  0  0  0  0
   -6.0803   -4.3038    4.7821 C   0  0  0  0  0  0  0  0  0  0  0  0
   -4.6964   -1.6949    4.9921 C   0  0  0  0  0  0  0  0  0  0  0  0
   -4.0944   -0.4383    5.0721 C   0  0  0  0  0  0  0  0  0  0  0  0
   -4.8611    0.7266    4.9672 C   0  0  0  0  0  0  0  0  0  0  0  0
   -4.2016    1.9591    4.9949 O   0  0  0  0  0  0  0  0  0  0  0  0
   -4.1109    2.7933    3.8453 C   0  0  0  0  0  0  0  0  0  0  0  0
   -8.1859    1.8789    3.9510 N   0  0  0  0  0  0  0  0  0  0  0  0
   -9.0193    2.9471    3.8788 C   0  0  0  0  0  0  0  0  0  0  0  0
  -10.0610    2.9111    3.0110 N   0  0  0  0  0  0  0  0  0  0  0  0
  -10.9117    3.9573    2.8945 C   0  0  0  0  0  0  0  0  0  0  0  0
  -10.6989    5.0869    3.6108 N   0  0  0  0  0  0  0  0  0  0  0  0
   -9.6652    5.1981    4.4868 C   0  0  0  0  0  0  0  0  0  0  0  0
   -9.4307    6.4801    5.0761 N   0  0  0  0  0  0  0  0  0  0  0  0
   -8.8099    4.0810    4.7024 C   0  0  0  0  0  0  0  0  0  0  0  0
  1  3  4  0
  1 14  4  0
  1  2  1  0
  3  4  4  0
  4  5  4  0
  5  6  4  0
  5 22  1  0
  6  7  1  0
  6 14  4  0
  7  8  1  0
  8  9  4  0
  8 12  4  0
  9 10  4  0
 10 11  4  0
 11 12  4  0
 12 13  1  0
 13 14  1  0
 13 15  1  6
 15 16  4  0
 15 20  4  0
 16 17  4  0
 17 18  4  0
 17 21  1  0
 18 19  4  0
 19 20  4  0
 23 24  4  0
 24 25  1  0
 25 26  4  0
 26 27  4  0
 27 28  1  0
 28 29  1  0
 27 30  4  0
 30 31  4  0
 31 32  4  0
 32 33  1  0
 33 34  1  0
 24 35  4  0
 35 36  4  0
 36 37  4  0
 37 38  4  0
 38 39  4  0
 39 40  4  0
 40 41  1  0
 40 42  4  0
 32 25  4  0
 42 36  4  0
  2 23  4  0
  2 42  4  0
M  END
$$$$

     RDKit          3D

 39 44  0  0  0  0  0  0  0  0999 V2000
   -7.6410    4.9930    6.8080 C   0  0  0  0  0  0  0  0  0  1  0  0
   -7.7310    4.0530    5.7140 C   0  0  0  0  0  0  0  0  0  2  0  0
   -6.4520    5.6300    6.8680 N   0  0  0  0  0  0  0  0  0  0  0  0
   -6.2260    6.5240    7.8670 N   0  0  0  0  0  0  0  0  0  0  0  0
   -7.1930    6.7500    8.7820 C   0  0  0  0  0  0  0  0  0  0  0  0
   -8.4240    6.1170    8.7580 C   0  0  0  0  0  0  0  0  0  0  0  0
   -9.3950    6.3570    9.7450 N   0  0  0  0  0  0  0  0  0  0  0  0
  -10.5620    5.6840    9.7600 C   0  0  0  0  0  0  0  0  0  0  0  0
  -11.5770    5.6820   10.5960 N   0  0  0  0  0  0  0  0  0  0  0  0
  -12.4690    4.7490   10.1080 N   0  0  0  0  0  0  0  0  0  0  0  0
  -12.0160    4.1880    8.9920 N   0  0  0  0  0  0  0  0  0  0  0  0
  -10.8400    4.7900    8.7610 N   0  0  0  0  0  0  0  0  0  0  0  0
   -9.9950    4.4790    7.6090 C   0  0  0  0  0  0  0  0  0  0  0  0
   -8.6630    5.2070    7.7200 C   0  0  0  0  0  0  0  0  0  0  0  0
  -10.7490    4.8610    6.3730 C   0  0  0  0  0  0  0  0  0  0  0  0
  -11.0350    6.2020    6.1170 C   0  0  0  0  0  0  0  0  0  0  0  0
  -11.7370    6.5580    4.9650 C   0  0  0  0  0  0  0  0  0  0  0  0
  -12.1550    5.5730    4.0710 C   0  0  0  0  0  0  0  0  0  0  0  0
  -11.8700    4.2310    4.3270 C   0  0  0  0  0  0  0  0  0  0  0  0
  -11.1660    3.8760    5.4790 C   0  0  0  0  0  0  0  0  0  0  0  0
  -12.0160    7.8660    4.7150 O   0  0  0  0  0  0  0  0  0  0  0  0
   -6.8990    7.6510    9.7710 O   0  0  0  0  0  0  0  0  0  0  0  0
   -6.7628    3.1713    5.3456 N   0  0  0  0  0  0  0  0  0  0  0  0
   -7.0872    2.3500    4.3240 C   0  0  0  0  0  0  0  0  0  0  0  0
   -6.1695    1.3764    3.8035 N   0  0  0  0  0  0  0  0  0  0  0  0
   -6.4472    0.4711    2.7219 C   0  0  0  0  0  0  0  0  0  0  0  0
   -7.5482    0.5088    2.1103 O   0  0  0  0  0  0  0  0  0  0  0  0
   -5.4354   -0.5653    2.3340 C   0  0  0  0  0  0  0  0  0  0  0  0
   -5.7238   -1.8654    3.0361 C   0  0  0  0  0  0  0  0  0  0  0  0
   -5.4717   -1.9945    4.4084 C   0  0  0  0  0  0  0  0  0  0  0  0
   -5.7380   -3.1963    5.0653 C   0  0  0  0  0  0  0  0  0  0  0  0
   -6.2591   -4.2955    4.3632 C   0  0  0  0  0  0  0  0  0  0  0  0
   -6.5404   -5.5770    5.1030 C   0  0  0  0  0  0  0  0  0  0  0  0
   -6.5310   -4.1697    2.9798 C   0  0  0  0  0  0  0  0  0  0  0  0
   -7.0897   -5.3213    2.1854 C   0  0  0  0  0  0  0  0  0  0  0  0
   -6.2511   -2.9559    2.3281 C   0  0  0  0  0  0  0  0  0  0  0  0
   -8.6603    2.6274    3.7883 S   0  0  0  0  0  0  0  0  0  0  0  0
   -8.9364    3.8578    4.9019 C   0  0  0  0  0  0  0  0  0  0  0  0
  -10.2078    4.6419    4.9818 C   0  0  0  0  0  0  0  0  0  0  0  0
  1  3  4  0
  1 14  4  0
  1  2  1  0
  3  4  4  0
  4  5  4  0
  5  6  4  0
  5 22  1  0
  6  7  1  0
  6 14  4  0
  7  8  1  0
  8  9  4  0
  8 12  4  0
  9 10  4  0
 10 11  4  0
 11 12  4  0
 12 13  1  0
 13 14  1  0
 13 15  1  6
 15 16  4  0
 15 20  4  0
 16 17  4  0
 17 18  4  0
 17 21  1  0
 18 19  4  0
 19 20  4  0
 23 24  4  0
 24 25  1  0
 25 26  1  0
 26 27  2  0
 26 28  1  0
 28 29  1  0
 29 30  4  0
 30 31  4  0
 31 32  4  0
 32 33  1  0
 32 34  4  0
 34 35  1  0
 34 36  4  0
 24 37  4  0
 37 38  4  0
 38 39  1  0
 36 29  4  0
  2 23  4  0
  2 38  4  0
M  END
$$$$

     RDKit          3D

 39 44  0  0  0  0  0  0  0  0999 V2000
   -7.6410    4.9930    6.8080 C   0  0  0  0  0  0  0  0  0  1  0  0
   -7.7310    4.0530    5.7140 C   0  0  0  0  0  0  0  0  0  2  0  0
   -6.4520    5.6300    6.8680 N   0  0  0  0  0  0  0  0  0  0  0  0
   -6.2260    6.5240    7.8670 N   0  0  0  0  0  0  0  0  0  0  0  0
   -7.1930    6.7500    8.7820 C   0  0  0  0  0  0  0  0  0  0  0  0
   -8.4240    6.1170    8.7580 C   0  0  0  0  0  0  0  0  0  0  0  0
   -9.3950    6.3570    9.7450 N   0  0  0  0  0  0  0  0  0  0  0  0
  -10.5620    5.6840    9.7600 C   0  0  0  0  0  0  0  0  0  0  0  0
  -11.5770    5.6820   10.5960 N   0  0  0  0  0  0  0  0  0  0  0  0
  -12.4690    4.7490   10.1080 N   0  0  0  0  0  0  0  0  0  0  0  0
  -12.0160    4.1880    8.9920 N   0  0  0  0  0  0  0  0  0  0  0  0
  -10.8400    4.7900    8.7610 N   0  0  0  0  0  0  0  0  0  0  0  0
   -9.9950    4.4790    7.6090 C   0  0  0  0  0  0  0  0  0  0  0  0
   -8.6630    5.2070    7.7200 C   0  0  0  0  0  0  0  0  0  0  0  0
  -10.7490    4.8610    6.3730 C   0  0  0  0  0  0  0  0  0  0  0  0
  -11.0350    6.2020    6.1170 C   0  0  0  0  0  0  0  0  0  0  0  0
  -11.7370    6.5580    4.9650 C   0  0  0  0  0  0  0  0  0  0  0  0
  -12.1550    5.5730    4.0710 C   0  0  0  0  0  0  0  0  0  0  0  0
  -11.8700    4.2310    4.3270 C   0  0  0  0  0  0  0  0  0  0  0  0
  -11.1660    3.8760    5.4790 C   0  0  0  0  0  0  0  0  0  0  0  0
  -12.0160    7.8660    4.7150 O   0  0  0  0  0  0  0  0  0  0  0  0
   -6.8990    7.6510    9.7710 O   0  0  0  0  0  0  0  0  0  0  0  0
   -6.7652    3.1662    5.3508 N   0  0  0  0  0  0  0  0  0  0  0  0
   -7.0882    2.3552    4.3210 C   0  0  0  0  0  0  0  0  0  0  0  0
   -6.2067    1.3309    3.8429 N   0  0  0  0  0  0  0  0  0  0  0  0
   -6.3588    0.6461    2.5914 C   0  0  0  0  0  0  0  0  0  0  0  0
   -6.0047   -0.5612    2.5089 O   0  0  0  0  0  0  0  0  0  0  0  0
   -6.9016    1.3400    1.3704 C   0  0  0  0  0  0  0  0  0  0  0  0
   -6.0438    1.0627    0.1625 C   0  0  0  0  0  0  0  0  0  0  0  0
   -6.5301    0.2788   -0.8918 C   0  0  0  0  0  0  0  0  0  0  0  0
   -5.7321    0.0255   -2.0084 C   0  0  0  0  0  0  0  0  0  0  0  0
   -4.4327    0.5522   -2.0946 C   0  0  0  0  0  0  0  0  0  0  0  0
   -3.5954    0.2576   -3.3116 C   0  0  0  0  0  0  0  0  0  0  0  0
   -3.9320    1.3421   -1.0320 C   0  0  0  0  0  0  0  0  0  0  0  0
   -2.5450    1.9276   -1.0805 C   0  0  0  0  0  0  0  0  0  0  0  0
   -4.7469    1.5922    0.0855 C   0  0  0  0  0  0  0  0  0  0  0  0
   -8.6663    2.6193    3.7950 S   0  0  0  0  0  0  0  0  0  0  0  0
   -8.9366    3.8576    4.9018 C   0  0  0  0  0  0  0  0  0  0  0  0
  -10.2086    4.6407    4.9836 C   0  0  0  0  0  0  0  0  0  0  0  0
  1  3  4  0
  1 14  4  0
  1  2  1  0
  3  4  4  0
  4  5  4  0
  5  6  4  0
  5 22  1  0
  6  7  1  0
  6 14  4  0
  7  8  1  0
  8  9  4  0
  8 12  4  0
  9 10  4  0
 10 11  4  0
 11 12  4  0
 12 13  1  0
 13 14  1  0
 13 15  1  6
 15 16  4  0
 15 20  4  0
 16 17  4  0
 17 18  4  0
 17 21  1  0
 18 19  4  0
 19 20  4  0
 23 24  4  0
 24 25  1  0
 25 26  1  0
 26 27  2  0
 26 28  1  0
 28 29  1  0
 29 30  4  0
 30 31  4  0
 31 32  4  0
 32 33  1  0
 32 34  4  0
 34 35  1  0
 34 36  4  0
 24 37  4  0
 37 38  4  0
 38 39  1  0
 36 29  4  0
  2 23  4  0
  2 38  4  0
M  END
$$$$

     RDKit          3D

 39 44  0  0  0  0  0  0  0  0999 V2000
   -7.6410    4.9930    6.8080 C   0  0  0  0  0  0  0  0  0  1  0  0
   -7.7310    4.0530    5.7140 C   0  0  0  0  0  0  0  0  0  2  0  0
   -6.4520    5.6300    6.8680 N   0  0  0  0  0  0  0  0  0  0  0  0
   -6.2260    6.5240    7.8670 N   0  0  0  0  0  0  0  0  0  0  0  0
   -7.1930    6.7500    8.7820 C   0  0  0  0  0  0  0  0  0  0  0  0
   -8.4240    6.1170    8.7580 C   0  0  0  0  0  0  0  0  0  0  0  0
   -9.3950    6.3570    9.7450 N   0  0  0  0  0  0  0  0  0  0  0  0
  -10.5620    5.6840    9.7600 C   0  0  0  0  0  0  0  0  0  0  0  0
  -11.5770    5.6820   10.5960 N   0  0  0  0  0  0  0  0  0  0  0  0
  -12.4690    4.7490   10.1080 N   0  0  0  0  0  0  0  0  0  0  0  0
  -12.0160    4.1880    8.9920 N   0  0  0  0  0  0  0  0  0  0  0  0
  -10.8400    4.7900    8.7610 N   0  0  0  0  0  0  0  0  0  0  0  0
   -9.9950    4.4790    7.6090 C   0  0  0  0  0  0  0  0  0  0  0  0
   -8.6630    5.2070    7.7200 C   0  0  0  0  0  0  0  0  0  0  0  0
  -10.7490    4.8610    6.3730 C   0  0  0  0  0  0  0  0  0  0  0  0
  -11.0350    6.2020    6.1170 C   0  0  0  0  0  0  0  0  0  0  0  0
  -11.7370    6.5580    4.9650 C   0  0  0  0  0  0  0  0  0  0  0  0
  -12.1550    5.5730    4.0710 C   0  0  0  0  0  0  0  0  0  0  0  0
  -11.8700    4.2310    4.3270 C   0  0  0  0  0  0  0  0  0  0  0  0
  -11.1660    3.8760    5.4790 C   0  0  0  0  0  0  0  0  0  0  0  0
  -12.0160    7.8660    4.7150 O   0  0  0  0  0  0  0  0  0  0  0  0
   -6.8990    7.6510    9.7710 O   0  0  0  0  0  0  0  0  0  0  0  0
   -6.7571    3.1837    5.3324 N   0  0  0  0  0  0  0  0  0  0  0  0
   -7.0876    2.3528    4.3205 C   0  0  0  0  0  0  0  0  0  0  0  0
   -6.1384    1.4571    3.7239 N   0  0  0  0  0  0  0  0  0  0  0  0
   -6.4556    0.3054    2.9245 C   0  0  0  0  0  0  0  0  0  0  0  0
   -5.5782   -0.1554    2.1463 O   0  0  0  0  0  0  0  0  0  0  0  0
   -7.7759   -0.4131    3.0267 C   0  0  0  0  0  0  0  0  0  0  0  0
   -8.7469   -0.1257    1.8981 C   0  0  0  0  0  0  0  0  0  0  0  0
   -8.4591    0.7586    0.8412 C   0  0  0  0  0  0  0  0  0  0  0  0
   -9.4003    0.9934   -0.1622 C   0  0  0  0  0  0  0  0  0  0  0  0
  -10.6500    0.3549   -0.1373 C   0  0  0  0  0  0  0  0  0  0  0  0
  -11.6417    0.6290   -1.2378 C   0  0  0  0  0  0  0  0  0  0  0  0
  -10.9481   -0.5432    0.9136 C   0  0  0  0  0  0  0  0  0  0  0  0
  -12.2757   -1.2528    0.9809 C   0  0  0  0  0  0  0  0  0  0  0  0
   -9.9946   -0.7681    1.9213 C   0  0  0  0  0  0  0  0  0  0  0  0
   -8.6553    2.6399    3.7782 S   0  0  0  0  0  0  0  0  0  0  0  0
   -8.9393    3.8539    4.9065 C   0  0  0  0  0  0  0  0  0  0  0  0
  -10.2127    4.6343    4.9909 C   0  0  0  0  0  0  0  0  0  0  0  0
  1  3  4  0
  1 14  4  0
  1  2  1  0
  3  4  4  0
  4  5  4  0
  5  6  4  0
  5 22  1  0
  6  7  1  0
  6 14  4  0
  7  8  1  0
  8  9  4  0
  8 12  4  0
  9 10  4  0
 10 11  4  0
 11 12  4  0
 12 13  1  0
 13 14  1  0
 13 15  1  6
 15 16  4  0
 15 20  4  0
 16 17  4  0
 17 18  4  0
 17 21  1  0
 18 19  4  0
 19 20  4  0
 23 24  4  0
 24 25  1  0
 25 26  1  0
 26 27  2  0
 26 28  1  0
 28 29  1  0
 29 30  4  0
 30 31  4  0
 31 32  4  0
 32 33  1  0
 32 34  4  0
 34 35  1  0
 34 36  4  0
 24 37  4  0
 37 38  4  0
 38 39  1  0
 36 29  4  0
  2 23  4  0
  2 38  4  0
M  END
$$$$

     RDKit          3D

 32 37  0  0  0  0  0  0  0  0999 V2000
   -7.6410    4.9930    6.8080 C   0  0  0  0  0  0  0  0  0  1  0  0
   -7.7310    4.0530    5.7140 C   0  0  0  0  0  0  0  0  0  2  0  0
   -6.4520    5.6300    6.8680 N   0  0  0  0  0  0  0  0  0  0  0  0
   -6.2260    6.5240    7.8670 N   0  0  0  0  0  0  0  0  0  0  0  0
   -7.1930    6.7500    8.7820 C   0  0  0  0  0  0  0  0  0  0  0  0
   -8.4240    6.1170    8.7580 C   0  0  0  0  0  0  0  0  0  0  0  0
   -9.3950    6.3570    9.7450 N   0  0  0  0  0  0  0  0  0  0  0  0
  -10.5620    5.6840    9.7600 C   0  0  0  0  0  0  0  0  0  0  0  0
  -11.5770    5.6820   10.5960 N   0  0  0  0  0  0  0  0  0  0  0  0
  -12.4690    4.7490   10.1080 N   0  0  0  0  0  0  0  0  0  0  0  0
  -12.0160    4.1880    8.9920 N   0  0  0  0  0  0  0  0  0  0  0  0
  -10.8400    4.7900    8.7610 N   0  0  0  0  0  0  0  0  0  0  0  0
   -9.9950    4.4790    7.6090 C   0  0  0  0  0  0  0  0  0  0  0  0
   -8.6630    5.2070    7.7200 C   0  0  0  0  0  0  0  0  0  0  0  0
  -10.7490    4.8610    6.3730 C   0  0  0  0  0  0  0  0  0  0  0  0
  -11.0350    6.2020    6.1170 C   0  0  0  0  0  0  0  0  0  0  0  0
  -11.7370    6.5580    4.9650 C   0  0  0  0  0  0  0  0  0  0  0  0
  -12.1550    5.5730    4.0710 C   0  0  0  0  0  0  0  0  0  0  0  0
  -11.8700    4.2310    4.3270 C   0  0  0  0  0  0  0  0  0  0  0  0
  -11.1660    3.8760    5.4790 C   0  0  0  0  0  0  0  0  0  0  0  0
  -12.0160    7.8660    4.7150 O   0  0  0  0  0  0  0  0  0  0  0  0
   -6.8990    7.6510    9.7710 O   0  0  0  0  0  0  0  0  0  0  0  0
   -6.8590    2.9584    5.5508 C   0  0  0  0  0  0  0  0  0  0  0  0
   -7.0089    2.0145    4.5297 C   0  0  0  0  0  0  0  0  0  0  0  0
   -6.1091    0.9534    4.3678 C   0  0  0  0  0  0  0  0  0  0  0  0
   -6.3028    0.0352    3.3331 C   0  0  0  0  0  0  0  0  0  0  0  0
   -7.3935    0.1886    2.4723 C   0  0  0  0  0  0  0  0  0  0  0  0
   -8.2584    1.2246    2.6423 N   0  0  0  0  0  0  0  0  0  0  0  0
   -8.0950    2.1326    3.6413 C   0  0  0  0  0  0  0  0  0  0  0  0
   -8.9752    3.1571    3.7787 N   0  0  0  0  0  0  0  0  0  0  0  0
   -8.8546    4.0860    4.7651 C   0  0  0  0  0  0  0  0  0  0  0  0
  -10.0171    5.4050    4.8049 Cl  0  0  0  0  0  0  0  0  0  0  0  0
  1  3  4  0
  1 14  4  0
  1  2  1  0
  3  4  4  0
  4  5  4  0
  5  6  4  0
  5 22  1  0
  6  7  1  0
  6 14  4  0
  7  8  1  0
  8  9  4  0
  8 12  4  0
  9 10  4  0
 10 11  4  0
 11 12  4  0
 12 13  1  0
 13 14  1  0
 13 15  1  6
 15 16  4  0
 15 20  4  0
 16 17  4  0
 17 18  4  0
 17 21  1  0
 18 19  4  0
 19 20  4  0
 23 24  4  0
 24 25  4  0
 25 26  4  0
 26 27  4  0
 27 28  4  0
 28 29  4  0
 29 30  4  0
 30 31  4  0
 31 32  1  0
 29 24  4  0
  2 23  4  0
  2 31  4  0
M  END
$$$$

     RDKit          3D

 35 40  0  0  0  0  0  0  0  0999 V2000
   -7.6410    4.9930    6.8080 C   0  0  0  0  0  0  0  0  0  1  0  0
   -7.7310    4.0530    5.7140 C   0  0  0  0  0  0  0  0  0  2  0  0
   -6.4520    5.6300    6.8680 N   0  0  0  0  0  0  0  0  0  0  0  0
   -6.2260    6.5240    7.8670 N   0  0  0  0  0  0  0  0  0  0  0  0
   -7.1930    6.7500    8.7820 C   0  0  0  0  0  0  0  0  0  0  0  0
   -8.4240    6.1170    8.7580 C   0  0  0  0  0  0  0  0  0  0  0  0
   -9.3950    6.3570    9.7450 N   0  0  0  0  0  0  0  0  0  0  0  0
  -10.5620    5.6840    9.7600 C   0  0  0  0  0  0  0  0  0  0  0  0
  -11.5770    5.6820   10.5960 N   0  0  0  0  0  0  0  0  0  0  0  0
  -12.4690    4.7490   10.1080 N   0  0  0  0  0  0  0  0  0  0  0  0
  -12.0160    4.1880    8.9920 N   0  0  0  0  0  0  0  0  0  0  0  0
  -10.8400    4.7900    8.7610 N   0  0  0  0  0  0  0  0  0  0  0  0
   -9.9950    4.4790    7.6090 C   0  0  0  0  0  0  0  0  0  0  0  0
   -8.6630    5.2070    7.7200 C   0  0  0  0  0  0  0  0  0  0  0  0
  -10.7490    4.8610    6.3730 C   0  0  0  0  0  0  0  0  0  0  0  0
  -11.0350    6.2020    6.1170 C   0  0  0  0  0  0  0  0  0  0  0  0
  -11.7370    6.5580    4.9650 C   0  0  0  0  0  0  0  0  0  0  0  0
  -12.1550    5.5730    4.0710 C   0  0  0  0  0  0  0  0  0  0  0  0
  -11.8700    4.2310    4.3270 C   0  0  0  0  0  0  0  0  0  0  0  0
  -11.1660    3.8760    5.4790 C   0  0  0  0  0  0  0  0  0  0  0  0
  -12.0160    7.8660    4.7150 O   0  0  0  0  0  0  0  0  0  0  0  0
   -6.8990    7.6510    9.7710 O   0  0  0  0  0  0  0  0  0  0  0  0
   -6.7835    3.1088    5.4753 N   0  0  0  0  0  0  0  0  0  0  0  0
   -6.8600    2.1780    4.4935 C   0  0  0  0  0  0  0  0  0  0  0  0
   -5.5206    1.0169    4.2566 S   0  0  0  0  0  0  0  0  0  0  0  0
   -6.2356   -0.2144    5.3891 C   0  0  0  0  0  0  0  0  0  0  0  0
   -7.9496    2.1274    3.6896 N   0  0  0  0  0  0  0  0  0  0  0  0
   -8.9831    2.9995    3.8349 C   0  0  0  0  0  0  0  0  0  0  0  0
  -10.1109    2.9090    2.9464 N   0  0  0  0  0  0  0  0  0  0  0  0
  -10.1688    1.8981    1.8941 C   0  0  0  0  0  0  0  0  0  0  0  0
   -9.3042    2.2368    0.6918 C   0  0  0  0  0  0  0  0  0  0  0  0
  -10.8154    2.3808    0.6072 C   0  0  0  0  0  0  0  0  0  0  0  0
   -8.9208    3.9809    4.8464 C   0  0  0  0  0  0  0  0  0  0  0  0
   -9.9626    4.9774    4.9686 C   0  0  0  0  0  0  0  0  0  0  0  0
  -10.7960    5.7745    5.0664 N   0  0  0  0  0  0  0  0  0  0  0  0
  1  3  4  0
  1 14  4  0
  1  2  1  0
  3  4  4  0
  4  5  4  0
  5  6  4  0
  5 22  1  0
  6  7  1  0
  6 14  4  0
  7  8  1  0
  8  9  4  0
  8 12  4  0
  9 10  4  0
 10 11  4  0
 11 12  4  0
 12 13  1  0
 13 14  1  0
 13 15  1  6
 15 16  4  0
 15 20  4  0
 16 17  4  0
 17 18  4  0
 17 21  1  0
 18 19  4  0
 19 20  4  0
 23 24  4  0
 24 25  1  0
 25 26  1  0
 24 27  4  0
 27 28  4  0
 28 29  1  0
 29 30  1  0
 30 31  1  0
 31 32  1  0
 28 33  4  0
 33 34  1  0
 34 35  3  0
 32 30  1  0
  2 23  4  0
  2 33  4  0
M  END
$$$$

     RDKit          3D

 35 40  0  0  0  0  0  0  0  0999 V2000
   -7.6410    4.9930    6.8080 C   0  0  0  0  0  0  0  0  0  1  0  0
   -7.7310    4.0530    5.7140 C   0  0  0  0  0  0  0  0  0  2  0  0
   -6.4520    5.6300    6.8680 N   0  0  0  0  0  0  0  0  0  0  0  0
   -6.2260    6.5240    7.8670 N   0  0  0  0  0  0  0  0  0  0  0  0
   -7.1930    6.7500    8.7820 C   0  0  0  0  0  0  0  0  0  0  0  0
   -8.4240    6.1170    8.7580 C   0  0  0  0  0  0  0  0  0  0  0  0
   -9.3950    6.3570    9.7450 N   0  0  0  0  0  0  0  0  0  0  0  0
  -10.5620    5.6840    9.7600 C   0  0  0  0  0  0  0  0  0  0  0  0
  -11.5770    5.6820   10.5960 N   0  0  0  0  0  0  0  0  0  0  0  0
  -12.4690    4.7490   10.1080 N   0  0  0  0  0  0  0  0  0  0  0  0
  -12.0160    4.1880    8.9920 N   0  0  0  0  0  0  0  0  0  0  0  0
  -10.8400    4.7900    8.7610 N   0  0  0  0  0  0  0  0  0  0  0  0
   -9.9950    4.4790    7.6090 C   0  0  0  0  0  0  0  0  0  0  0  0
   -8.6630    5.2070    7.7200 C   0  0  0  0  0  0  0  0  0  0  0  0
  -10.7490    4.8610    6.3730 C   0  0  0  0  0  0  0  0  0  0  0  0
  -11.0350    6.2020    6.1170 C   0  0  0  0  0  0  0  0  0  0  0  0
  -11.7370    6.5580    4.9650 C   0  0  0  0  0  0  0  0  0  0  0  0
  -12.1550    5.5730    4.0710 C   0  0  0  0  0  0  0  0  0  0  0  0
  -11.8700    4.2310    4.3270 C   0  0  0  0  0  0  0  0  0  0  0  0
  -11.1660    3.8760    5.4790 C   0  0  0  0  0  0  0  0  0  0  0  0
  -12.0160    7.8660    4.7150 O   0  0  0  0  0  0  0  0  0  0  0  0
   -6.8990    7.6510    9.7710 O   0  0  0  0  0  0  0  0  0  0  0  0
   -6.7777    3.1187    5.4658 N   0  0  0  0  0  0  0  0  0  0  0  0
   -6.8499    2.1943    4.4786 C   0  0  0  0  0  0  0  0  0  0  0  0
   -5.4952    1.0555    4.2210 S   0  0  0  0  0  0  0  0  0  0  0  0
   -4.6400    2.1594    3.0551 C   0  0  0  0  0  0  0  0  0  0  0  0
   -7.9507    2.1266    3.6917 N   0  0  0  0  0  0  0  0  0  0  0  0
   -8.9994    2.9753    3.8541 C   0  0  0  0  0  0  0  0  0  0  0  0
  -10.1292    2.8247    2.9752 N   0  0  0  0  0  0  0  0  0  0  0  0
  -11.5137    3.0982    3.3586 C   0  0  0  0  0  0  0  0  0  0  0  0
  -12.4337    1.9034    3.1668 C   0  0  0  0  0  0  0  0  0  0  0  0
  -11.9979    2.3083    4.5648 C   0  0  0  0  0  0  0  0  0  0  0  0
   -8.9284    3.9740    4.8548 C   0  0  0  0  0  0  0  0  0  0  0  0
   -9.9281    5.0152    4.9500 C   0  0  0  0  0  0  0  0  0  0  0  0
  -10.7234    5.8522    5.0306 N   0  0  0  0  0  0  0  0  0  0  0  0
  1  3  4  0
  1 14  4  0
  1  2  1  0
  3  4  4  0
  4  5  4  0
  5  6  4  0
  5 22  1  0
  6  7  1  0
  6 14  4  0
  7  8  1  0
  8  9  4  0
  8 12  4  0
  9 10  4  0
 10 11  4  0
 11 12  4  0
 12 13  1  0
 13 14  1  0
 13 15  1  6
 15 16  4  0
 15 20  4  0
 16 17  4  0
 17 18  4  0
 17 21  1  0
 18 19  4  0
 19 20  4  0
 23 24  4  0
 24 25  1  0
 25 26  1  0
 24 27  4  0
 27 28  4  0
 28 29  1  0
 29 30  1  0
 30 31  1  0
 31 32  1  0
 28 33  4  0
 33 34  1  0
 34 35  3  0
 32 30  1  0
  2 23  4  0
  2 33  4  0
M  END
$$$$

     RDKit          3D

 31 35  0  0  0  0  0  0  0  0999 V2000
   -7.6410    4.9930    6.8080 C   0  0  0  0  0  0  0  0  0  1  0  0
   -7.7310    4.0530    5.7140 C   0  0  0  0  0  0  0  0  0  2  0  0
   -6.4520    5.6300    6.8680 N   0  0  0  0  0  0  0  0  0  0  0  0
   -6.2260    6.5240    7.8670 N   0  0  0  0  0  0  0  0  0  0  0  0
   -7.1930    6.7500    8.7820 C   0  0  0  0  0  0  0  0  0  0  0  0
   -8.4240    6.1170    8.7580 C   0  0  0  0  0  0  0  0  0  0  0  0
   -9.3950    6.3570    9.7450 N   0  0  0  0  0  0  0  0  0  0  0  0
  -10.5620    5.6840    9.7600 C   0  0  0  0  0  0  0  0  0  0  0  0
  -11.5770    5.6820   10.5960 N   0  0  0  0  0  0  0  0  0  0  0  0
  -12.4690    4.7490   10.1080 N   0  0  0  0  0  0  0  0  0  0  0  0
  -12.0160    4.1880    8.9920 N   0  0  0  0  0  0  0  0  0  0  0  0
  -10.8400    4.7900    8.7610 N   0  0  0  0  0  0  0  0  0  0  0  0
   -9.9950    4.4790    7.6090 C   0  0  0  0  0  0  0  0  0  0  0  0
   -8.6630    5.2070    7.7200 C   0  0  0  0  0  0  0  0  0  0  0  0
  -10.7490    4.8610    6.3730 C   0  0  0  0  0  0  0  0  0  0  0  0
  -11.0350    6.2020    6.1170 C   0  0  0  0  0  0  0  0  0  0  0  0
  -11.7370    6.5580    4.9650 C   0  0  0  0  0  0  0  0  0  0  0  0
  -12.1550    5.5730    4.0710 C   0  0  0  0  0  0  0  0  0  0  0  0
  -11.8700    4.2310    4.3270 C   0  0  0  0  0  0  0  0  0  0  0  0
  -11.1660    3.8760    5.4790 C   0  0  0  0  0  0  0  0  0  0  0  0
  -12.0160    7.8660    4.7150 O   0  0  0  0  0  0  0  0  0  0  0  0
   -6.8990    7.6510    9.7710 O   0  0  0  0  0  0  0  0  0  0  0  0
   -6.8209    3.0280    5.4606 C   0  0  0  0  0  0  0  0  0  0  0  0
   -6.9951    2.0936    4.4360 C   0  0  0  0  0  0  0  0  0  0  0  0
   -8.1367    2.1364    3.6176 C   0  0  0  0  0  0  0  0  0  0  0  0
   -8.3134    1.1725    2.5633 N   0  0  0  0  0  0  0  0  0  0  0  0
   -9.3250    1.2063    1.8321 O   0  0  0  0  0  0  0  0  0  0  0  0
   -7.3706    0.1940    2.3452 O   0  0  0  0  0  0  0  0  0  0  0  0
   -9.0954    3.1416    3.8401 C   0  0  0  0  0  0  0  0  0  0  0  0
   -8.9221    4.0764    4.8657 C   0  0  0  0  0  0  0  0  0  0  0  0
   -9.8378    5.0667    5.0188 F   0  0  0  0  0  0  0  0  0  0  0  0
  1  3  4  0
  1 14  4  0
  1  2  1  0
  3  4  4  0
  4  5  4  0
  5  6  4  0
  5 22  1  0
  6  7  1  0
  6 14  4  0
  7  8  1  0
  8  9  4  0
  8 12  4  0
  9 10  4  0
 10 11  4  0
 11 12  4  0
 12 13  1  0
 13 14  1  0
 13 15  1  6
 15 16  4  0
 15 20  4  0
 16 17  4  0
 17 18  4  0
 17 21  1  0
 18 19  4  0
 19 20  4  0
 23 24  4  0
 24 25  4  0
 25 26  1  0
 26 27  2  0
 26 28  1  0
 25 29  4  0
 29 30  4  0
 30 31  1  0
  2 23  4  0
  2 30  4  0
M  CHG  2  26   1  28  -1
M  END
$$$$

     RDKit          3D

 31 35  0  0  0  0  0  0  0  0999 V2000
   -7.6410    4.9930    6.8080 C   0  0  0  0  0  0  0  0  0  1  0  0
   -7.7310    4.0530    5.7140 C   0  0  0  0  0  0  0  0  0  2  0  0
   -6.4520    5.6300    6.8680 N   0  0  0  0  0  0  0  0  0  0  0  0
   -6.2260    6.5240    7.8670 N   0  0  0  0  0  0  0  0  0  0  0  0
   -7.1930    6.7500    8.7820 C   0  0  0  0  0  0  0  0  0  0  0  0
   -8.4240    6.1170    8.7580 C   0  0  0  0  0  0  0  0  0  0  0  0
   -9.3950    6.3570    9.7450 N   0  0  0  0  0  0  0  0  0  0  0  0
  -10.5620    5.6840    9.7600 C   0  0  0  0  0  0  0  0  0  0  0  0
  -11.5770    5.6820   10.5960 N   0  0  0  0  0  0  0  0  0  0  0  0
  -12.4690    4.7490   10.1080 N   0  0  0  0  0  0  0  0  0  0  0  0
  -12.0160    4.1880    8.9920 N   0  0  0  0  0  0  0  0  0  0  0  0
  -10.8400    4.7900    8.7610 N   0  0  0  0  0  0  0  0  0  0  0  0
   -9.9950    4.4790    7.6090 C   0  0  0  0  0  0  0  0  0  0  0  0
   -8.6630    5.2070    7.7200 C   0  0  0  0  0  0  0  0  0  0  0  0
  -10.7490    4.8610    6.3730 C   0  0  0  0  0  0  0  0  0  0  0  0
  -11.0350    6.2020    6.1170 C   0  0  0  0  0  0  0  0  0  0  0  0
  -11.7370    6.5580    4.9650 C   0  0  0  0  0  0  0  0  0  0  0  0
  -12.1550    5.5730    4.0710 C   0  0  0  0  0  0  0  0  0  0  0  0
  -11.8700    4.2310    4.3270 C   0  0  0  0  0  0  0  0  0  0  0  0
  -11.1660    3.8760    5.4790 C   0  0  0  0  0  0  0  0  0  0  0  0
  -12.0160    7.8660    4.7150 O   0  0  0  0  0  0  0  0  0  0  0  0
   -6.8990    7.6510    9.7710 O   0  0  0  0  0  0  0  0  0  0  0  0
   -6.8211    3.0278    5.4608 C   0  0  0  0  0  0  0  0  0  0  0  0
   -6.9954    2.0936    4.4362 C   0  0  0  0  0  0  0  0  0  0  0  0
   -8.1382    2.1369    3.6173 C   0  0  0  0  0  0  0  0  0  0  0  0
   -8.3222    1.1767    2.5609 N   0  0  0  0  0  0  0  0  0  0  0  0
   -7.4725    0.2850    2.3555 O   0  0  0  0  0  0  0  0  0  0  0  0
   -9.4408    1.2231    1.7606 O   0  0  0  0  0  0  0  0  0  0  0  0
   -9.0957    3.1416    3.8398 C   0  0  0  0  0  0  0  0  0  0  0  0
   -8.9221    4.0765    4.8656 C   0  0  0  0  0  0  0  0  0  0  0  0
   -9.8376    5.0670    5.0185 F   0  0  0  0  0  0  0  0  0  0  0  0
  1  3  4  0
  1 14  4  0
  1  2  1  0
  3  4  4  0
  4  5  4  0
  5  6  4  0
  5 22  1  0
  6  7  1  0
  6 14  4  0
  7  8  1  0
  8  9  4  0
  8 12  4  0
  9 10  4  0
 10 11  4  0
 11 12  4  0
 12 13  1  0
 13 14  1  0
 13 15  1  6
 15 16  4  0
 15 20  4  0
 16 17  4  0
 17 18  4  0
 17 21  1  0
 18 19  4  0
 19 20  4  0
 23 24  4  0
 24 25  4  0
 25 26  1  0
 26 27  2  0
 26 28  1  0
 25 29  4  0
 29 30  4  0
 30 31  1  0
  2 23  4  0
  2 30  4  0
M  CHG  2  26   1  28  -1
M  END
$$$$

     RDKit          3D

 46 52  0  0  0  0  0  0  0  0999 V2000
   -7.6410    4.9930    6.8080 C   0  0  0  0  0  0  0  0  0  1  0  0
   -7.7310    4.0530    5.7140 C   0  0  0  0  0  0  0  0  0  2  0  0
   -6.4520    5.6300    6.8680 N   0  0  0  0  0  0  0  0  0  0  0  0
   -6.2260    6.5240    7.8670 N   0  0  0  0  0  0  0  0  0  0  0  0
   -7.1930    6.7500    8.7820 C   0  0  0  0  0  0  0  0  0  0  0  0
   -8.4240    6.1170    8.7580 C   0  0  0  0  0  0  0  0  0  0  0  0
   -9.3950    6.3570    9.7450 N   0  0  0  0  0  0  0  0  0  0  0  0
  -10.5620    5.6840    9.7600 C   0  0  0  0  0  0  0  0  0  0  0  0
  -11.5770    5.6820   10.5960 N   0  0  0  0  0  0  0  0  0  0  0  0
  -12.4690    4.7490   10.1080 N   0  0  0  0  0  0  0  0  0  0  0  0
  -12.0160    4.1880    8.9920 N   0  0  0  0  0  0  0  0  0  0  0  0
  -10.8400    4.7900    8.7610 N   0  0  0  0  0  0  0  0  0  0  0  0
   -9.9950    4.4790    7.6090 C   0  0  0  0  0  0  0  0  0  0  0  0
   -8.6630    5.2070    7.7200 C   0  0  0  0  0  0  0  0  0  0  0  0
  -10.7490    4.8610    6.3730 C   0  0  0  0  0  0  0  0  0  0  0  0
  -11.0350    6.2020    6.1170 C   0  0  0  0  0  0  0  0  0  0  0  0
  -11.7370    6.5580    4.9650 C   0  0  0  0  0  0  0  0  0  0  0  0
  -12.1550    5.5730    4.0710 C   0  0  0  0  0  0  0  0  0  0  0  0
  -11.8700    4.2310    4.3270 C   0  0  0  0  0  0  0  0  0  0  0  0
  -11.1660    3.8760    5.4790 C   0  0  0  0  0  0  0  0  0  0  0  0
  -12.0160    7.8660    4.7150 O   0  0  0  0  0  0  0  0  0  0  0  0
   -6.8990    7.6510    9.7710 O   0  0  0  0  0  0  0  0  0  0  0  0
   -6.8483    3.0691    5.4110 N   0  0  0  0  0  0  0  0  0  0  0  0
   -7.3415    2.3263    4.4356 N   0  0  0  0  0  0  0  0  0  0  0  0
   -8.5608    2.8022    4.1251 C   0  0  0  0  0  0  0  0  0  0  0  0
   -9.5167    2.1653    2.9475 S   0  0  0  0  0  0  0  0  0  0  0  0
   -8.8818    3.8649    4.8973 N   0  0  0  0  0  0  0  0  0  0  0  0
  -10.0604    4.7392    4.7756 C   0  0  0  0  0  0  0  0  0  0  0  0
   -9.9838    5.6393    3.5341 C   0  0  0  0  0  0  0  0  0  0  0  0
   -8.6943    6.4170    3.4540 C   0  0  0  0  0  0  0  0  0  0  0  0
   -8.2779    7.0285    4.4810 O   0  0  0  0  0  0  0  0  0  0  0  0
   -7.9272    6.4704    2.2346 N   0  0  0  0  0  0  0  0  0  0  0  0
   -6.4568    6.5101    2.3219 C   0  0  0  0  0  0  0  0  0  0  0  0
   -5.8282    6.6682    0.9386 C   0  0  0  0  0  0  0  0  0  0  0  0
   -6.5663    7.7256    0.2283 N   0  0  0  0  0  0  0  0  0  0  0  0
   -5.8300    8.3680   -0.8926 C   0  0  0  0  0  0  0  0  0  0  0  0
   -5.3600    7.3515   -1.9618 C   0  0  0  0  0  0  0  0  0  0  0  0
   -4.7185    9.2626   -0.3326 C   0  0  0  0  0  0  0  0  0  0  0  0
   -3.3536    9.0577   -0.6525 C   0  0  0  0  0  0  0  0  0  0  0  0
   -2.3599    9.8573   -0.0866 C   0  0  0  0  0  0  0  0  0  0  0  0
   -2.6977   10.8780    0.7964 C   0  0  0  0  0  0  0  0  0  0  0  0
   -4.0347   11.0937    1.1343 C   0  0  0  0  0  0  0  0  0  0  0  0
   -5.0474   10.3130    0.5613 C   0  0  0  0  0  0  0  0  0  0  0  0
   -6.7156   10.7036    0.9841 Cl  0  0  0  0  0  0  0  0  0  0  0  0
   -7.9438    7.3166   -0.1265 C   0  0  0  0  0  0  0  0  0  0  0  0
   -8.5965    6.3916    0.9252 C   0  0  0  0  0  0  0  0  0  0  0  0
  1  3  4  0
  1 14  4  0
  1  2  1  0
  3  4  4  0
  4  5  4  0
  5  6  4  0
  5 22  1  0
  6  7  1  0
  6 14  4  0
  7  8  1  0
  8  9  4  0
  8 12  4  0
  9 10  4  0
 10 11  4  0
 11 12  4  0
 12 13  1  0
 13 14  1  0
 13 15  1  6
 15 16  4  0
 15 20  4  0
 16 17  4  0
 17 18  4  0
 17 21  1  0
 18 19  4  0
 19 20  4  0
 23 24  4  0
 24 25  4  0
 25 26  2  0
 25 27  4  0
 27 28  1  0
 28 29  1  0
 29 30  1  0
 30 31  2  0
 30 32  1  0
 32 33  1  0
 33 34  1  0
 34 35  1  0
 35 36  1  0
 36 37  1  0
 36 38  1  0
 38 39  4  0
 39 40  4  0
 40 41  4  0
 41 42  4  0
 42 43  4  0
 43 44  1  0
 35 45  1  0
 45 46  1  0
 46 32  1  0
 43 38  4  0
  2 23  4  0
  2 27  4  0
M  END
$$$$

     RDKit          3D

 34 39  0  0  0  0  0  0  0  0999 V2000
   -7.6410    4.9930    6.8080 C   0  0  0  0  0  0  0  0  0  1  0  0
   -7.7310    4.0530    5.7140 C   0  0  0  0  0  0  0  0  0  2  0  0
   -6.4520    5.6300    6.8680 N   0  0  0  0  0  0  0  0  0  0  0  0
   -6.2260    6.5240    7.8670 N   0  0  0  0  0  0  0  0  0  0  0  0
   -7.1930    6.7500    8.7820 C   0  0  0  0  0  0  0  0  0  0  0  0
   -8.4240    6.1170    8.7580 C   0  0  0  0  0  0  0  0  0  0  0  0
   -9.3950    6.3570    9.7450 N   0  0  0  0  0  0  0  0  0  0  0  0
  -10.5620    5.6840    9.7600 C   0  0  0  0  0  0  0  0  0  0  0  0
  -11.5770    5.6820   10.5960 N   0  0  0  0  0  0  0  0  0  0  0  0
  -12.4690    4.7490   10.1080 N   0  0  0  0  0  0  0  0  0  0  0  0
  -12.0160    4.1880    8.9920 N   0  0  0  0  0  0  0  0  0  0  0  0
  -10.8400    4.7900    8.7610 N   0  0  0  0  0  0  0  0  0  0  0  0
   -9.9950    4.4790    7.6090 C   0  0  0  0  0  0  0  0  0  0  0  0
   -8.6630    5.2070    7.7200 C   0  0  0  0  0  0  0  0  0  0  0  0
  -10.7490    4.8610    6.3730 C   0  0  0  0  0  0  0  0  0  0  0  0
  -11.0350    6.2020    6.1170 C   0  0  0  0  0  0  0  0  0  0  0  0
  -11.7370    6.5580    4.9650 C   0  0  0  0  0  0  0  0  0  0  0  0
  -12.1550    5.5730    4.0710 C   0  0  0  0  0  0  0  0  0  0  0  0
  -11.8700    4.2310    4.3270 C   0  0  0  0  0  0  0  0  0  0  0  0
  -11.1660    3.8760    5.4790 C   0  0  0  0  0  0  0  0  0  0  0  0
  -12.0160    7.8660    4.7150 O   0  0  0  0  0  0  0  0  0  0  0  0
   -6.8990    7.6510    9.7710 O   0  0  0  0  0  0  0  0  0  0  0  0
   -6.9156    2.9929    5.4600 N   0  0  0  0  0  0  0  0  0  0  0  0
   -7.3641    2.3552    4.3662 C   0  0  0  0  0  0  0  0  0  0  0  0
   -6.7771    1.2632    3.7286 C   0  0  0  0  0  0  0  0  0  0  0  0
   -7.3932    0.7720    2.5637 C   0  0  0  0  0  0  0  0  0  0  0  0
   -8.5649    1.3811    2.0623 C   0  0  0  0  0  0  0  0  0  0  0  0
   -9.1434    0.9022    0.9337 F   0  0  0  0  0  0  0  0  0  0  0  0
   -9.1326    2.4851    2.7246 C   0  0  0  0  0  0  0  0  0  0  0  0
   -8.5074    2.9427    3.8861 C   0  0  0  0  0  0  0  0  0  0  0  0
   -8.8089    3.9985    4.7284 C   0  0  0  0  0  0  0  0  0  0  0  0
   -9.8701    5.0394    4.5120 C   0  0  0  0  0  0  0  0  0  0  0  0
   -9.3308    6.1388    3.7073 C   0  0  0  0  0  0  0  0  0  0  0  0
   -8.9040    7.0070    3.0722 N   0  0  0  0  0  0  0  0  0  0  0  0
  1  3  4  0
  1 14  4  0
  1  2  1  0
  3  4  4  0
  4  5  4  0
  5  6  4  0
  5 22  1  0
  6  7  1  0
  6 14  4  0
  7  8  1  0
  8  9  4  0
  8 12  4  0
  9 10  4  0
 10 11  4  0
 11 12  4  0
 12 13  1  0
 13 14  1  0
 13 15  1  6
 15 16  4  0
 15 20  4  0
 16 17  4  0
 17 18  4  0
 17 21  1  0
 18 19  4  0
 19 20  4  0
 23 24  4  0
 24 25  4  0
 25 26  4  0
 26 27  4  0
 27 28  1  0
 27 29  4  0
 29 30  4  0
 30 31  4  0
 31 32  1  0
 32 33  1  0
 33 34  3  0
 30 24  4  0
  2 23  4  0
  2 31  4  0
M  END
$$$$

     RDKit          3D

 42 47  0  0  0  0  0  0  0  0999 V2000
   -7.6410    4.9930    6.8080 C   0  0  0  0  0  0  0  0  0  1  0  0
   -7.7310    4.0530    5.7140 C   0  0  0  0  0  0  0  0  0  2  0  0
   -6.4520    5.6300    6.8680 N   0  0  0  0  0  0  0  0  0  0  0  0
   -6.2260    6.5240    7.8670 N   0  0  0  0  0  0  0  0  0  0  0  0
   -7.1930    6.7500    8.7820 C   0  0  0  0  0  0  0  0  0  0  0  0
   -8.4240    6.1170    8.7580 C   0  0  0  0  0  0  0  0  0  0  0  0
   -9.3950    6.3570    9.7450 N   0  0  0  0  0  0  0  0  0  0  0  0
  -10.5620    5.6840    9.7600 C   0  0  0  0  0  0  0  0  0  0  0  0
  -11.5770    5.6820   10.5960 N   0  0  0  0  0  0  0  0  0  0  0  0
  -12.4690    4.7490   10.1080 N   0  0  0  0  0  0  0  0  0  0  0  0
  -12.0160    4.1880    8.9920 N   0  0  0  0  0  0  0  0  0  0  0  0
  -10.8400    4.7900    8.7610 N   0  0  0  0  0  0  0  0  0  0  0  0
   -9.9950    4.4790    7.6090 C   0  0  0  0  0  0  0  0  0  0  0  0
   -8.6630    5.2070    7.7200 C   0  0  0  0  0  0  0  0  0  0  0  0
  -10.7490    4.8610    6.3730 C   0  0  0  0  0  0  0  0  0  0  0  0
  -11.0350    6.2020    6.1170 C   0  0  0  0  0  0  0  0  0  0  0  0
  -11.7370    6.5580    4.9650 C   0  0  0  0  0  0  0  0  0  0  0  0
  -12.1550    5.5730    4.0710 C   0  0  0  0  0  0  0  0  0  0  0  0
  -11.8700    4.2310    4.3270 C   0  0  0  0  0  0  0  0  0  0  0  0
  -11.1660    3.8760    5.4790 C   0  0  0  0  0  0  0  0  0  0  0  0
  -12.0160    7.8660    4.7150 O   0  0  0  0  0  0  0  0  0  0  0  0
   -6.8990    7.6510    9.7710 O   0  0  0  0  0  0  0  0  0  0  0  0
   -6.8589    3.0692    5.4033 N   0  0  0  0  0  0  0  0  0  0  0  0
   -7.2915    2.4053    4.3418 N   0  0  0  0  0  0  0  0  0  0  0  0
   -8.4702    2.9519    3.9934 C   0  0  0  0  0  0  0  0  0  0  0  0
   -9.4039    2.4455    2.5349 S   0  0  0  0  0  0  0  0  0  0  0  0
   -8.8196    3.9574    4.8212 N   0  0  0  0  0  0  0  0  0  0  0  0
   -9.9058    4.9210    4.6207 C   0  0  0  0  0  0  0  0  0  0  0  0
   -9.4848    5.9707    3.6306 C   0  0  0  0  0  0  0  0  0  0  0  0
   -8.4335    6.6310    3.8511 O   0  0  0  0  0  0  0  0  0  0  0  0
  -10.2305    6.2066    2.4232 N   0  0  0  0  0  0  0  0  0  0  0  0
   -9.4963    6.4412    1.1780 C   0  0  0  0  0  0  0  0  0  0  0  0
  -11.6996    6.2558    2.4259 C   0  0  0  0  0  0  0  0  0  0  0  0
  -12.1809    7.6408    2.0515 C   0  0  0  0  0  0  0  0  0  0  0  0
  -11.7602    8.7261    2.8419 C   0  0  0  0  0  0  0  0  0  0  0  0
  -12.0999   10.0346    2.4953 C   0  0  0  0  0  0  0  0  0  0  0  0
  -12.8642   10.2791    1.3557 C   0  0  0  0  0  0  0  0  0  0  0  0
  -13.3066    9.2148    0.5689 C   0  0  0  0  0  0  0  0  0  0  0  0
  -12.9903    7.8890    0.9129 C   0  0  0  0  0  0  0  0  0  0  0  0
  -13.5161    6.8191    0.1144 N   0  0  0  0  0  0  0  0  0  0  0  0
  -13.5392    6.9238   -1.1293 O   0  0  0  0  0  0  0  0  0  0  0  0
  -14.2423    5.8141    0.7105 O   0  0  0  0  0  0  0  0  0  0  0  0
  1  3  4  0
  1 14  4  0
  1  2  1  0
  3  4  4  0
  4  5  4  0
  5  6  4  0
  5 22  1  0
  6  7  1  0
  6 14  4  0
  7  8  1  0
  8  9  4  0
  8 12  4  0
  9 10  4  0
 10 11  4  0
 11 12  4  0
 12 13  1  0
 13 14  1  0
 13 15  1  6
 15 16  4  0
 15 20  4  0
 16 17  4  0
 17 18  4  0
 17 21  1  0
 18 19  4  0
 19 20  4  0
 23 24  4  0
 24 25  4  0
 25 26  1  0
 25 27  4  0
 27 28  1  0
 28 29  1  0
 29 30  2  0
 29 31  1  0
 31 32  1  0
 31 33  1  0
 33 34  1  0
 34 35  4  0
 35 36  4  0
 36 37  4  0
 37 38  4  0
 38 39  4  0
 39 40  1  0
 40 41  2  0
 40 42  1  0
 39 34  4  0
  2 23  4  0
  2 27  4  0
M  CHG  3  26  -1  40   1  42  -1
M  END
$$$$

     RDKit          3D

 34 39  0  0  0  0  0  0  0  0999 V2000
   -7.6410    4.9930    6.8080 C   0  0  0  0  0  0  0  0  0  1  0  0
   -7.7310    4.0530    5.7140 C   0  0  0  0  0  0  0  0  0  2  0  0
   -6.4520    5.6300    6.8680 N   0  0  0  0  0  0  0  0  0  0  0  0
   -6.2260    6.5240    7.8670 N   0  0  0  0  0  0  0  0  0  0  0  0
   -7.1930    6.7500    8.7820 C   0  0  0  0  0  0  0  0  0  0  0  0
   -8.4240    6.1170    8.7580 C   0  0  0  0  0  0  0  0  0  0  0  0
   -9.3950    6.3570    9.7450 N   0  0  0  0  0  0  0  0  0  0  0  0
  -10.5620    5.6840    9.7600 C   0  0  0  0  0  0  0  0  0  0  0  0
  -11.5770    5.6820   10.5960 N   0  0  0  0  0  0  0  0  0  0  0  0
  -12.4690    4.7490   10.1080 N   0  0  0  0  0  0  0  0  0  0  0  0
  -12.0160    4.1880    8.9920 N   0  0  0  0  0  0  0  0  0  0  0  0
  -10.8400    4.7900    8.7610 N   0  0  0  0  0  0  0  0  0  0  0  0
   -9.9950    4.4790    7.6090 C   0  0  0  0  0  0  0  0  0  0  0  0
   -8.6630    5.2070    7.7200 C   0  0  0  0  0  0  0  0  0  0  0  0
  -10.7490    4.8610    6.3730 C   0  0  0  0  0  0  0  0  0  0  0  0
  -11.0350    6.2020    6.1170 C   0  0  0  0  0  0  0  0  0  0  0  0
  -11.7370    6.5580    4.9650 C   0  0  0  0  0  0  0  0  0  0  0  0
  -12.1550    5.5730    4.0710 C   0  0  0  0  0  0  0  0  0  0  0  0
  -11.8700    4.2310    4.3270 C   0  0  0  0  0  0  0  0  0  0  0  0
  -11.1660    3.8760    5.4790 C   0  0  0  0  0  0  0  0  0  0  0  0
  -12.0160    7.8660    4.7150 O   0  0  0  0  0  0  0  0  0  0  0  0
   -6.8990    7.6510    9.7710 O   0  0  0  0  0  0  0  0  0  0  0  0
   -6.7660    3.2063    5.2655 N   0  0  0  0  0  0  0  0  0  0  0  0
   -7.3560    2.4897    4.2934 C   0  0  0  0  0  0  0  0  0  0  0  0
   -6.7511    1.3308    3.2490 S   0  0  0  0  0  0  0  0  0  0  0  0
   -8.2648    1.1892    2.4651 C   0  0  0  0  0  0  0  0  0  0  0  0
   -9.1961    2.0564    3.0711 C   0  0  0  0  0  0  0  0  0  0  0  0
  -10.6230    2.2321    2.6177 C   0  0  0  0  0  0  0  0  0  0  0  0
  -11.1695    1.0001    1.9628 C   0  0  0  0  0  0  0  0  0  0  0  0
  -11.5087    1.0230    0.7504 O   0  0  0  0  0  0  0  0  0  0  0  0
  -11.3102   -0.1725    2.6946 O   0  0  0  0  0  0  0  0  0  0  0  0
   -8.6262    2.7750    4.0747 N   0  0  0  0  0  0  0  0  0  0  0  0
   -8.9417    3.7607    4.9317 C   0  0  0  0  0  0  0  0  0  0  0  0
  -10.2408    4.5091    4.9656 C   0  0  0  0  0  0  0  0  0  0  0  0
  1  3  4  0
  1 14  4  0
  1  2  1  0
  3  4  4  0
  4  5  4  0
  5  6  4  0
  5 22  1  0
  6  7  1  0
  6 14  4  0
  7  8  1  0
  8  9  4  0
  8 12  4  0
  9 10  4  0
 10 11  4  0
 11 12  4  0
 12 13  1  0
 13 14  1  0
 13 15  1  6
 15 16  4  0
 15 20  4  0
 16 17  4  0
 17 18  4  0
 17 21  1  0
 18 19  4  0
 19 20  4  0
 23 24  4  0
 24 25  4  0
 25 26  4  0
 26 27  4  0
 27 28  1  0
 28 29  1  0
 29 30  2  0
 29 31  1  0
 27 32  4  0
 32 33  4  0
 33 34  1  0
 32 24  4  0
  2 23  4  0
  2 33  4  0
M  CHG  1  31  -1
M  END
$$$$

     RDKit          3D

 34 39  0  0  0  0  0  0  0  0999 V2000
   -7.6410    4.9930    6.8080 C   0  0  0  0  0  0  0  0  0  1  0  0
   -7.7310    4.0530    5.7140 C   0  0  0  0  0  0  0  0  0  2  0  0
   -6.4520    5.6300    6.8680 N   0  0  0  0  0  0  0  0  0  0  0  0
   -6.2260    6.5240    7.8670 N   0  0  0  0  0  0  0  0  0  0  0  0
   -7.1930    6.7500    8.7820 C   0  0  0  0  0  0  0  0  0  0  0  0
   -8.4240    6.1170    8.7580 C   0  0  0  0  0  0  0  0  0  0  0  0
   -9.3950    6.3570    9.7450 N   0  0  0  0  0  0  0  0  0  0  0  0
  -10.5620    5.6840    9.7600 C   0  0  0  0  0  0  0  0  0  0  0  0
  -11.5770    5.6820   10.5960 N   0  0  0  0  0  0  0  0  0  0  0  0
  -12.4690    4.7490   10.1080 N   0  0  0  0  0  0  0  0  0  0  0  0
  -12.0160    4.1880    8.9920 N   0  0  0  0  0  0  0  0  0  0  0  0
  -10.8400    4.7900    8.7610 N   0  0  0  0  0  0  0  0  0  0  0  0
   -9.9950    4.4790    7.6090 C   0  0  0  0  0  0  0  0  0  0  0  0
   -8.6630    5.2070    7.7200 C   0  0  0  0  0  0  0  0  0  0  0  0
  -10.7490    4.8610    6.3730 C   0  0  0  0  0  0  0  0  0  0  0  0
  -11.0350    6.2020    6.1170 C   0  0  0  0  0  0  0  0  0  0  0  0
  -11.7370    6.5580    4.9650 C   0  0  0  0  0  0  0  0  0  0  0  0
  -12.1550    5.5730    4.0710 C   0  0  0  0  0  0  0  0  0  0  0  0
  -11.8700    4.2310    4.3270 C   0  0  0  0  0  0  0  0  0  0  0  0
  -11.1660    3.8760    5.4790 C   0  0  0  0  0  0  0  0  0  0  0  0
  -12.0160    7.8660    4.7150 O   0  0  0  0  0  0  0  0  0  0  0  0
   -6.8990    7.6510    9.7710 O   0  0  0  0  0  0  0  0  0  0  0  0
   -6.7651    3.2083    5.2638 N   0  0  0  0  0  0  0  0  0  0  0  0
   -7.3552    2.4904    4.2926 C   0  0  0  0  0  0  0  0  0  0  0  0
   -6.7496    1.3329    3.2472 S   0  0  0  0  0  0  0  0  0  0  0  0
   -8.2642    1.1883    2.4658 C   0  0  0  0  0  0  0  0  0  0  0  0
   -9.1964    2.0532    3.0735 C   0  0  0  0  0  0  0  0  0  0  0  0
  -10.6248    2.2259    2.6225 C   0  0  0  0  0  0  0  0  0  0  0  0
  -11.1705    0.9974    1.9602 C   0  0  0  0  0  0  0  0  0  0  0  0
  -11.3202   -0.0648    2.6200 O   0  0  0  0  0  0  0  0  0  0  0  0
  -11.5198    1.0275    0.6162 O   0  0  0  0  0  0  0  0  0  0  0  0
   -8.6264    2.7731    4.0761 N   0  0  0  0  0  0  0  0  0  0  0  0
   -8.9425    3.7581    4.9337 C   0  0  0  0  0  0  0  0  0  0  0  0
  -10.2430    4.5039    4.9695 C   0  0  0  0  0  0  0  0  0  0  0  0
  1  3  4  0
  1 14  4  0
  1  2  1  0
  3  4  4  0
  4  5  4  0
  5  6  4  0
  5 22  1  0
  6  7  1  0
  6 14  4  0
  7  8  1  0
  8  9  4  0
  8 12  4  0
  9 10  4  0
 10 11  4  0
 11 12  4  0
 12 13  1  0
 13 14  1  0
 13 15  1  6
 15 16  4  0
 15 20  4  0
 16 17  4  0
 17 18  4  0
 17 21  1  0
 18 19  4  0
 19 20  4  0
 23 24  4  0
 24 25  4  0
 25 26  4  0
 26 27  4  0
 27 28  1  0
 28 29  1  0
 29 30  2  0
 29 31  1  0
 27 32  4  0
 32 33  4  0
 33 34  1  0
 32 24  4  0
  2 23  4  0
  2 33  4  0
M  CHG  1  31  -1
M  END
$$$$

     RDKit          3D

 46 52  0  0  0  0  0  0  0  0999 V2000
   -7.6410    4.9930    6.8080 C   0  0  0  0  0  0  0  0  0  1  0  0
   -7.7310    4.0530    5.7140 C   0  0  0  0  0  0  0  0  0  2  0  0
   -6.4520    5.6300    6.8680 N   0  0  0  0  0  0  0  0  0  0  0  0
   -6.2260    6.5240    7.8670 N   0  0  0  0  0  0  0  0  0  0  0  0
   -7.1930    6.7500    8.7820 C   0  0  0  0  0  0  0  0  0  0  0  0
   -8.4240    6.1170    8.7580 C   0  0  0  0  0  0  0  0  0  0  0  0
   -9.3950    6.3570    9.7450 N   0  0  0  0  0  0  0  0  0  0  0  0
  -10.5620    5.6840    9.7600 C   0  0  0  0  0  0  0  0  0  0  0  0
  -11.5770    5.6820   10.5960 N   0  0  0  0  0  0  0  0  0  0  0  0
  -12.4690    4.7490   10.1080 N   0  0  0  0  0  0  0  0  0  0  0  0
  -12.0160    4.1880    8.9920 N   0  0  0  0  0  0  0  0  0  0  0  0
  -10.8400    4.7900    8.7610 N   0  0  0  0  0  0  0  0  0  0  0  0
   -9.9950    4.4790    7.6090 C   0  0  0  0  0  0  0  0  0  0  0  0
   -8.6630    5.2070    7.7200 C   0  0  0  0  0  0  0  0  0  0  0  0
  -10.7490    4.8610    6.3730 C   0  0  0  0  0  0  0  0  0  0  0  0
  -11.0350    6.2020    6.1170 C   0  0  0  0  0  0  0  0  0  0  0  0
  -11.7370    6.5580    4.9650 C   0  0  0  0  0  0  0  0  0  0  0  0
  -12.1550    5.5730    4.0710 C   0  0  0  0  0  0  0  0  0  0  0  0
  -11.8700    4.2310    4.3270 C   0  0  0  0  0  0  0  0  0  0  0  0
  -11.1660    3.8760    5.4790 C   0  0  0  0  0  0  0  0  0  0  0  0
  -12.0160    7.8660    4.7150 O   0  0  0  0  0  0  0  0  0  0  0  0
   -6.8990    7.6510    9.7710 O   0  0  0  0  0  0  0  0  0  0  0  0
   -6.9224    2.9913    5.4932 N   0  0  0  0  0  0  0  0  0  0  0  0
   -7.3703    2.2984    4.4571 N   0  0  0  0  0  0  0  0  0  0  0  0
   -8.4878    2.9133    4.0272 C   0  0  0  0  0  0  0  0  0  0  0  0
   -9.4715    2.2965    2.6564 S   0  0  0  0  0  0  0  0  0  0  0  0
   -8.3368    2.9035    1.3637 C   0  0  0  0  0  0  0  0  0  0  0  0
   -8.5310    4.3670    1.1288 C   0  0  0  0  0  0  0  0  0  0  0  0
   -7.5746    5.1601    1.3444 O   0  0  0  0  0  0  0  0  0  0  0  0
   -9.7850    4.8507    0.6260 N   0  0  0  0  0  0  0  0  0  0  0  0
   -9.9688    6.2321    0.1677 C   0  0  0  0  0  0  0  0  0  0  0  0
  -11.4081    6.7064    0.4342 C   0  0  0  0  0  0  0  0  0  0  0  0
  -12.4270    6.0316   -0.4981 C   0  0  0  0  0  0  0  0  0  0  0  0
  -11.9994    6.0338   -1.8629 O   0  0  0  0  0  0  0  0  0  0  0  0
  -10.6667    6.1960   -2.2599 C   0  0  0  0  0  0  0  0  0  0  0  0
  -10.3563    6.2264   -3.6258 C   0  0  0  0  0  0  0  0  0  0  0  0
   -9.0304    6.3784   -4.0420 C   0  0  0  0  0  0  0  0  0  0  0  0
   -8.0105    6.5053   -3.0979 C   0  0  0  0  0  0  0  0  0  0  0  0
   -8.3126    6.4773   -1.7321 C   0  0  0  0  0  0  0  0  0  0  0  0
   -9.6410    6.3227   -1.3018 C   0  0  0  0  0  0  0  0  0  0  0  0
   -8.7811    3.9979    4.7770 N   0  0  0  0  0  0  0  0  0  0  0  0
   -9.9056    4.9306    4.6206 C   0  0  0  0  0  0  0  0  0  0  0  0
   -9.4115    6.3401    4.2606 C   0  0  0  0  0  0  0  0  0  0  0  0
  -10.5276    7.3205    4.0468 C   0  0  0  0  0  0  0  0  0  0  0  0
  -11.7308    6.9966    4.2310 O   0  0  0  0  0  0  0  0  0  0  0  0
  -10.2244    8.6129    3.6408 O   0  0  0  0  0  0  0  0  0  0  0  0
  1  3  4  0
  1 14  4  0
  1  2  1  0
  3  4  4  0
  4  5  4  0
  5  6  4  0
  5 22  1  0
  6  7  1  0
  6 14  4  0
  7  8  1  0
  8  9  4  0
  8 12  4  0
  9 10  4  0
 10 11  4  0
 11 12  4  0
 12 13  1  0
 13 14  1  0
 13 15  1  6
 15 16  4  0
 15 20  4  0
 16 17  4  0
 17 18  4  0
 17 21  1  0
 18 19  4  0
 19 20  4  0
 23 24  4  0
 24 25  4  0
 25 26  1  0
 26 27  1  0
 27 28  1  0
 28 29  2  0
 28 30  1  0
 30 31  1  0
 31 32  1  0
 32 33  1  0
 33 34  1  0
 34 35  1  0
 35 36  4  0
 36 37  4  0
 37 38  4  0
 38 39  4  0
 39 40  4  0
 25 41  4  0
 41 42  1  0
 42 43  1  0
 43 44  1  0
 44 45  2  0
 44 46  1  0
 40 31  1  0
 40 35  4  0
  2 23  4  0
  2 41  4  0
M  CHG  1  46  -1
M  END
$$$$

     RDKit          3D

 46 52  0  0  0  0  0  0  0  0999 V2000
   -7.6410    4.9930    6.8080 C   0  0  0  0  0  0  0  0  0  1  0  0
   -7.7310    4.0530    5.7140 C   0  0  0  0  0  0  0  0  0  2  0  0
   -6.4520    5.6300    6.8680 N   0  0  0  0  0  0  0  0  0  0  0  0
   -6.2260    6.5240    7.8670 N   0  0  0  0  0  0  0  0  0  0  0  0
   -7.1930    6.7500    8.7820 C   0  0  0  0  0  0  0  0  0  0  0  0
   -8.4240    6.1170    8.7580 C   0  0  0  0  0  0  0  0  0  0  0  0
   -9.3950    6.3570    9.7450 N   0  0  0  0  0  0  0  0  0  0  0  0
  -10.5620    5.6840    9.7600 C   0  0  0  0  0  0  0  0  0  0  0  0
  -11.5770    5.6820   10.5960 N   0  0  0  0  0  0  0  0  0  0  0  0
  -12.4690    4.7490   10.1080 N   0  0  0  0  0  0  0  0  0  0  0  0
  -12.0160    4.1880    8.9920 N   0  0  0  0  0  0  0  0  0  0  0  0
  -10.8400    4.7900    8.7610 N   0  0  0  0  0  0  0  0  0  0  0  0
   -9.9950    4.4790    7.6090 C   0  0  0  0  0  0  0  0  0  0  0  0
   -8.6630    5.2070    7.7200 C   0  0  0  0  0  0  0  0  0  0  0  0
  -10.7490    4.8610    6.3730 C   0  0  0  0  0  0  0  0  0  0  0  0
  -11.0350    6.2020    6.1170 C   0  0  0  0  0  0  0  0  0  0  0  0
  -11.7370    6.5580    4.9650 C   0  0  0  0  0  0  0  0  0  0  0  0
  -12.1550    5.5730    4.0710 C   0  0  0  0  0  0  0  0  0  0  0  0
  -11.8700    4.2310    4.3270 C   0  0  0  0  0  0  0  0  0  0  0  0
  -11.1660    3.8760    5.4790 C   0  0  0  0  0  0  0  0  0  0  0  0
  -12.0160    7.8660    4.7150 O   0  0  0  0  0  0  0  0  0  0  0  0
   -6.8990    7.6510    9.7710 O   0  0  0  0  0  0  0  0  0  0  0  0
   -6.8908    3.0305    5.4394 N   0  0  0  0  0  0  0  0  0  0  0  0
   -7.3452    2.3436    4.4026 N   0  0  0  0  0  0  0  0  0  0  0  0
   -8.5051    2.9155    4.0326 C   0  0  0  0  0  0  0  0  0  0  0  0
   -9.4690    2.3659    2.6202 S   0  0  0  0  0  0  0  0  0  0  0  0
  -10.4858    1.2106    3.5957 C   0  0  0  0  0  0  0  0  0  0  0  0
   -9.7358   -0.0649    3.8259 C   0  0  0  0  0  0  0  0  0  0  0  0
   -9.4119   -0.3991    4.9980 O   0  0  0  0  0  0  0  0  0  0  0  0
   -9.4171   -0.9110    2.7131 N   0  0  0  0  0  0  0  0  0  0  0  0
   -8.7203   -2.1937    2.8672 C   0  0  0  0  0  0  0  0  0  0  0  0
   -7.1987   -1.9361    2.9289 C   0  0  0  0  0  0  0  0  0  0  0  0
   -6.4111   -3.2283    2.7025 C   0  0  0  0  0  0  0  0  0  0  0  0
   -6.7779   -3.7971    1.4493 O   0  0  0  0  0  0  0  0  0  0  0  0
   -8.1190   -3.8796    1.0558 C   0  0  0  0  0  0  0  0  0  0  0  0
   -8.4774   -4.7126   -0.0114 C   0  0  0  0  0  0  0  0  0  0  0  0
   -9.8218   -4.8655   -0.3596 C   0  0  0  0  0  0  0  0  0  0  0  0
  -10.8121   -4.1891    0.3578 C   0  0  0  0  0  0  0  0  0  0  0  0
  -10.4590   -3.3401    1.4119 C   0  0  0  0  0  0  0  0  0  0  0  0
   -9.1071   -3.1382    1.7386 C   0  0  0  0  0  0  0  0  0  0  0  0
   -8.8180    3.9661    4.8179 N   0  0  0  0  0  0  0  0  0  0  0  0
   -9.9104    4.9320    4.6294 C   0  0  0  0  0  0  0  0  0  0  0  0
   -9.4057    6.2292    3.9907 C   0  0  0  0  0  0  0  0  0  0  0  0
   -8.8048    5.9799    2.6414 C   0  0  0  0  0  0  0  0  0  0  0  0
   -7.5709    6.1549    2.4539 O   0  0  0  0  0  0  0  0  0  0  0  0
   -9.6081    5.5615    1.5872 O   0  0  0  0  0  0  0  0  0  0  0  0
  1  3  4  0
  1 14  4  0
  1  2  1  0
  3  4  4  0
  4  5  4  0
  5  6  4  0
  5 22  1  0
  6  7  1  0
  6 14  4  0
  7  8  1  0
  8  9  4  0
  8 12  4  0
  9 10  4  0
 10 11  4  0
 11 12  4  0
 12 13  1  0
 13 14  1  0
 13 15  1  6
 15 16  4  0
 15 20  4  0
 16 17  4  0
 17 18  4  0
 17 21  1  0
 18 19  4  0
 19 20  4  0
 23 24  4  0
 24 25  4  0
 25 26  1  0
 26 27  1  0
 27 28  1  0
 28 29  2  0
 28 30  1  0
 30 31  1  0
 31 32  1  0
 32 33  1  0
 33 34  1  0
 34 35  1  0
 35 36  4  0
 36 37  4  0
 37 38  4  0
 38 39  4  0
 39 40  4  0
 25 41  4  0
 41 42  1  0
 42 43  1  0
 43 44  1  0
 44 45  2  0
 44 46  1  0
 40 31  1  0
 40 35  4  0
  2 23  4  0
  2 41  4  0
M  CHG  1  46  -1
M  END
$$$$

     RDKit          3D

 46 52  0  0  0  0  0  0  0  0999 V2000
   -7.6410    4.9930    6.8080 C   0  0  0  0  0  0  0  0  0  1  0  0
   -7.7310    4.0530    5.7140 C   0  0  0  0  0  0  0  0  0  2  0  0
   -6.4520    5.6300    6.8680 N   0  0  0  0  0  0  0  0  0  0  0  0
   -6.2260    6.5240    7.8670 N   0  0  0  0  0  0  0  0  0  0  0  0
   -7.1930    6.7500    8.7820 C   0  0  0  0  0  0  0  0  0  0  0  0
   -8.4240    6.1170    8.7580 C   0  0  0  0  0  0  0  0  0  0  0  0
   -9.3950    6.3570    9.7450 N   0  0  0  0  0  0  0  0  0  0  0  0
  -10.5620    5.6840    9.7600 C   0  0  0  0  0  0  0  0  0  0  0  0
  -11.5770    5.6820   10.5960 N   0  0  0  0  0  0  0  0  0  0  0  0
  -12.4690    4.7490   10.1080 N   0  0  0  0  0  0  0  0  0  0  0  0
  -12.0160    4.1880    8.9920 N   0  0  0  0  0  0  0  0  0  0  0  0
  -10.8400    4.7900    8.7610 N   0  0  0  0  0  0  0  0  0  0  0  0
   -9.9950    4.4790    7.6090 C   0  0  0  0  0  0  0  0  0  0  0  0
   -8.6630    5.2070    7.7200 C   0  0  0  0  0  0  0  0  0  0  0  0
  -10.7490    4.8610    6.3730 C   0  0  0  0  0  0  0  0  0  0  0  0
  -11.0350    6.2020    6.1170 C   0  0  0  0  0  0  0  0  0  0  0  0
  -11.7370    6.5580    4.9650 C   0  0  0  0  0  0  0  0  0  0  0  0
  -12.1550    5.5730    4.0710 C   0  0  0  0  0  0  0  0  0  0  0  0
  -11.8700    4.2310    4.3270 C   0  0  0  0  0  0  0  0  0  0  0  0
  -11.1660    3.8760    5.4790 C   0  0  0  0  0  0  0  0  0  0  0  0
  -12.0160    7.8660    4.7150 O   0  0  0  0  0  0  0  0  0  0  0  0
   -6.8990    7.6510    9.7710 O   0  0  0  0  0  0  0  0  0  0  0  0
   -6.8517    3.0781    5.3980 N   0  0  0  0  0  0  0  0  0  0  0  0
   -7.2806    2.4143    4.3355 N   0  0  0  0  0  0  0  0  0  0  0  0
   -8.4619    2.9555    3.9881 C   0  0  0  0  0  0  0  0  0  0  0  0
   -9.4104    2.4076    2.5685 S   0  0  0  0  0  0  0  0  0  0  0  0
  -10.3681    1.1955    3.5359 C   0  0  0  0  0  0  0  0  0  0  0  0
  -11.3318    0.4807    2.6358 C   0  0  0  0  0  0  0  0  0  0  0  0
  -12.2605    1.1502    2.1084 O   0  0  0  0  0  0  0  0  0  0  0  0
  -11.2814   -0.9371    2.3965 N   0  0  0  0  0  0  0  0  0  0  0  0
  -10.0988   -1.7975    2.5724 C   0  0  0  0  0  0  0  0  0  0  0  0
  -10.4860   -3.2827    2.4404 C   0  0  0  0  0  0  0  0  0  0  0  0
  -10.9399   -3.6391    1.0107 C   0  0  0  0  0  0  0  0  0  0  0  0
  -10.1168   -3.0403    0.0026 O   0  0  0  0  0  0  0  0  0  0  0  0
   -9.1389   -2.0746    0.2650 C   0  0  0  0  0  0  0  0  0  0  0  0
   -8.2253   -1.7296   -0.7369 C   0  0  0  0  0  0  0  0  0  0  0  0
   -7.1904   -0.8312   -0.4634 C   0  0  0  0  0  0  0  0  0  0  0  0
   -7.0604   -0.2833    0.8152 C   0  0  0  0  0  0  0  0  0  0  0  0
   -7.9807   -0.6108    1.8152 C   0  0  0  0  0  0  0  0  0  0  0  0
   -9.0509   -1.4752    1.5347 C   0  0  0  0  0  0  0  0  0  0  0  0
   -8.8159    3.9598    4.8165 N   0  0  0  0  0  0  0  0  0  0  0  0
   -9.9383    4.8946    4.6588 C   0  0  0  0  0  0  0  0  0  0  0  0
   -9.4645    6.2441    4.1061 C   0  0  0  0  0  0  0  0  0  0  0  0
   -8.8840    6.1080    2.7325 C   0  0  0  0  0  0  0  0  0  0  0  0
   -9.6133    5.7584    1.7676 O   0  0  0  0  0  0  0  0  0  0  0  0
   -7.5387    6.3784    2.5157 O   0  0  0  0  0  0  0  0  0  0  0  0
  1  3  4  0
  1 14  4  0
  1  2  1  0
  3  4  4  0
  4  5  4  0
  5  6  4  0
  5 22  1  0
  6  7  1  0
  6 14  4  0
  7  8  1  0
  8  9  4  0
  8 12  4  0
  9 10  4  0
 10 11  4  0
 11 12  4  0
 12 13  1  0
 13 14  1  0
 13 15  1  6
 15 16  4  0
 15 20  4  0
 16 17  4  0
 17 18  4  0
 17 21  1  0
 18 19  4  0
 19 20  4  0
 23 24  4  0
 24 25  4  0
 25 26  1  0
 26 27  1  0
 27 28  1  0
 28 29  2  0
 28 30  1  0
 30 31  1  0
 31 32  1  0
 32 33  1  0
 33 34  1  0
 34 35  1  0
 35 36  4  0
 36 37  4  0
 37 38  4  0
 38 39  4  0
 39 40  4  0
 25 41  4  0
 41 42  1  0
 42 43  1  0
 43 44  1  0
 44 45  2  0
 44 46  1  0
 40 31  1  0
 40 35  4  0
  2 23  4  0
  2 41  4  0
M  CHG  1  46  -1
M  END
$$$$

     RDKit          3D

 34 39  0  0  0  0  0  0  0  0999 V2000
   -7.6410    4.9930    6.8080 C   0  0  0  0  0  0  0  0  0  1  0  0
   -7.7310    4.0530    5.7140 C   0  0  0  0  0  0  0  0  0  2  0  0
   -6.4520    5.6300    6.8680 N   0  0  0  0  0  0  0  0  0  0  0  0
   -6.2260    6.5240    7.8670 N   0  0  0  0  0  0  0  0  0  0  0  0
   -7.1930    6.7500    8.7820 C   0  0  0  0  0  0  0  0  0  0  0  0
   -8.4240    6.1170    8.7580 C   0  0  0  0  0  0  0  0  0  0  0  0
   -9.3950    6.3570    9.7450 N   0  0  0  0  0  0  0  0  0  0  0  0
  -10.5620    5.6840    9.7600 C   0  0  0  0  0  0  0  0  0  0  0  0
  -11.5770    5.6820   10.5960 N   0  0  0  0  0  0  0  0  0  0  0  0
  -12.4690    4.7490   10.1080 N   0  0  0  0  0  0  0  0  0  0  0  0
  -12.0160    4.1880    8.9920 N   0  0  0  0  0  0  0  0  0  0  0  0
  -10.8400    4.7900    8.7610 N   0  0  0  0  0  0  0  0  0  0  0  0
   -9.9950    4.4790    7.6090 C   0  0  0  0  0  0  0  0  0  0  0  0
   -8.6630    5.2070    7.7200 C   0  0  0  0  0  0  0  0  0  0  0  0
  -10.7490    4.8610    6.3730 C   0  0  0  0  0  0  0  0  0  0  0  0
  -11.0350    6.2020    6.1170 C   0  0  0  0  0  0  0  0  0  0  0  0
  -11.7370    6.5580    4.9650 C   0  0  0  0  0  0  0  0  0  0  0  0
  -12.1550    5.5730    4.0710 C   0  0  0  0  0  0  0  0  0  0  0  0
  -11.8700    4.2310    4.3270 C   0  0  0  0  0  0  0  0  0  0  0  0
  -11.1660    3.8760    5.4790 C   0  0  0  0  0  0  0  0  0  0  0  0
  -12.0160    7.8660    4.7150 O   0  0  0  0  0  0  0  0  0  0  0  0
   -6.8990    7.6510    9.7710 O   0  0  0  0  0  0  0  0  0  0  0  0
   -6.7308    3.3478    5.1277 N   0  0  0  0  0  0  0  0  0  0  0  0
   -7.3086    2.5971    4.1683 C   0  0  0  0  0  0  0  0  0  0  0  0
   -6.6842    1.7412    3.2678 C   0  0  0  0  0  0  0  0  0  0  0  0
   -7.4911    1.0833    2.3200 C   0  0  0  0  0  0  0  0  0  0  0  0
   -8.8985    1.2964    2.2848 C   0  0  0  0  0  0  0  0  0  0  0  0
   -9.7149    0.6258    1.3083 N   0  0  0  0  0  0  0  0  0  0  0  0
   -9.2034   -0.1520    0.4764 O   0  0  0  0  0  0  0  0  0  0  0  0
  -11.0750    0.8320    1.2747 O   0  0  0  0  0  0  0  0  0  0  0  0
   -9.4894    2.1805    3.2191 C   0  0  0  0  0  0  0  0  0  0  0  0
   -8.6549    2.8008    4.1455 C   0  0  0  0  0  0  0  0  0  0  0  0
   -8.9670    3.6791    5.1036 N   0  0  0  0  0  0  0  0  0  0  0  0
  -10.1988    4.2567    5.3119 O   0  0  0  0  0  0  0  0  0  0  0  0
  1  3  4  0
  1 14  4  0
  1  2  1  0
  3  4  4  0
  4  5  4  0
  5  6  4  0
  5 22  1  0
  6  7  1  0
  6 14  4  0
  7  8  1  0
  8  9  4  0
  8 12  4  0
  9 10  4  0
 10 11  4  0
 11 12  4  0
 12 13  1  0
 13 14  1  0
 13 15  1  6
 15 16  4  0
 15 20  4  0
 16 17  4  0
 17 18  4  0
 17 21  1  0
 18 19  4  0
 19 20  4  0
 23 24  4  0
 24 25  4  0
 25 26  4  0
 26 27  4  0
 27 28  1  0
 28 29  2  0
 28 30  1  0
 27 31  4  0
 31 32  4  0
 32 33  4  0
 33 34  1  0
 32 24  4  0
  2 23  4  0
  2 33  4  0
M  CHG  3  28   1  30  -1  34  -1
M  END
$$$$

     RDKit          3D

 48 53  0  0  0  0  0  0  0  0999 V2000
   -7.6410    4.9930    6.8080 C   0  0  0  0  0  0  0  0  0  1  0  0
   -7.7310    4.0530    5.7140 C   0  0  0  0  0  0  0  0  0  2  0  0
   -6.4520    5.6300    6.8680 N   0  0  0  0  0  0  0  0  0  0  0  0
   -6.2260    6.5240    7.8670 N   0  0  0  0  0  0  0  0  0  0  0  0
   -7.1930    6.7500    8.7820 C   0  0  0  0  0  0  0  0  0  0  0  0
   -8.4240    6.1170    8.7580 C   0  0  0  0  0  0  0  0  0  0  0  0
   -9.3950    6.3570    9.7450 N   0  0  0  0  0  0  0  0  0  0  0  0
  -10.5620    5.6840    9.7600 C   0  0  0  0  0  0  0  0  0  0  0  0
  -11.5770    5.6820   10.5960 N   0  0  0  0  0  0  0  0  0  0  0  0
  -12.4690    4.7490   10.1080 N   0  0  0  0  0  0  0  0  0  0  0  0
  -12.0160    4.1880    8.9920 N   0  0  0  0  0  0  0  0  0  0  0  0
  -10.8400    4.7900    8.7610 N   0  0  0  0  0  0  0  0  0  0  0  0
   -9.9950    4.4790    7.6090 C   0  0  0  0  0  0  0  0  0  0  0  0
   -8.6630    5.2070    7.7200 C   0  0  0  0  0  0  0  0  0  0  0  0
  -10.7490    4.8610    6.3730 C   0  0  0  0  0  0  0  0  0  0  0  0
  -11.0350    6.2020    6.1170 C   0  0  0  0  0  0  0  0  0  0  0  0
  -11.7370    6.5580    4.9650 C   0  0  0  0  0  0  0  0  0  0  0  0
  -12.1550    5.5730    4.0710 C   0  0  0  0  0  0  0  0  0  0  0  0
  -11.8700    4.2310    4.3270 C   0  0  0  0  0  0  0  0  0  0  0  0
  -11.1660    3.8760    5.4790 C   0  0  0  0  0  0  0  0  0  0  0  0
  -12.0160    7.8660    4.7150 O   0  0  0  0  0  0  0  0  0  0  0  0
   -6.8990    7.6510    9.7710 O   0  0  0  0  0  0  0  0  0  0  0  0
   -6.8803    3.0430    5.4282 N   0  0  0  0  0  0  0  0  0  0  0  0
   -7.3421    2.3161    4.4241 N   0  0  0  0  0  0  0  0  0  0  0  0
   -6.6579    1.1348    3.8932 C   0  0  0  0  0  0  0  0  0  0  0  0
   -6.5882    1.1856    2.3880 C   0  0  0  0  0  0  0  0  0  0  0  0
   -5.8679    2.2103    1.7520 C   0  0  0  0  0  0  0  0  0  0  0  0
   -5.8188    2.2696    0.3566 C   0  0  0  0  0  0  0  0  0  0  0  0
   -6.4823    1.3068   -0.4133 C   0  0  0  0  0  0  0  0  0  0  0  0
   -7.1964    0.2784    0.2127 C   0  0  0  0  0  0  0  0  0  0  0  0
   -7.2526    0.2206    1.6080 C   0  0  0  0  0  0  0  0  0  0  0  0
   -8.5475    2.7833    4.0361 C   0  0  0  0  0  0  0  0  0  0  0  0
   -8.8639    3.8754    4.8180 C   0  0  0  0  0  0  0  0  0  0  0  0
  -10.0401    4.7467    4.6373 C   0  0  0  0  0  0  0  0  0  0  0  0
  -10.1651    5.8078    5.3022 O   0  0  0  0  0  0  0  0  0  0  0  0
  -11.0087    4.3954    3.6931 O   0  0  0  0  0  0  0  0  0  0  0  0
  -12.1050    5.2302    3.3279 C   0  0  0  0  0  0  0  0  0  0  0  0
  -11.6274    6.5091    2.6946 C   0  0  0  0  0  0  0  0  0  0  0  0
  -11.6905    7.5718    3.3645 O   0  0  0  0  0  0  0  0  0  0  0  0
  -11.1410    6.5753    1.3444 N   0  0  0  0  0  0  0  0  0  0  0  0
  -10.8258    5.4470    0.5086 C   0  0  0  0  0  0  0  0  0  0  0  0
  -10.5378    4.3345    1.0217 O   0  0  0  0  0  0  0  0  0  0  0  0
  -10.7844    5.5841   -0.9193 N   0  0  0  0  0  0  0  0  0  0  0  0
  -11.4178    6.7062   -1.6188 C   0  0  0  0  0  0  0  0  0  0  0  0
  -11.9187    6.2782   -3.0023 C   0  0  0  0  0  0  0  0  0  0  0  0
  -12.8565    5.2631   -2.8725 F   0  0  0  0  0  0  0  0  0  0  0  0
  -10.8617    5.8294   -3.7756 F   0  0  0  0  0  0  0  0  0  0  0  0
  -12.5117    7.3568   -3.6373 F   0  0  0  0  0  0  0  0  0  0  0  0
  1  3  4  0
  1 14  4  0
  1  2  1  0
  3  4  4  0
  4  5  4  0
  5  6  4  0
  5 22  1  0
  6  7  1  0
  6 14  4  0
  7  8  1  0
  8  9  4  0
  8 12  4  0
  9 10  4  0
 10 11  4  0
 11 12  4  0
 12 13  1  0
 13 14  1  0
 13 15  1  6
 15 16  4  0
 15 20  4  0
 16 17  4  0
 17 18  4  0
 17 21  1  0
 18 19  4  0
 19 20  4  0
 23 24  4  0
 24 25  1  0
 25 26  1  0
 26 27  4  0
 27 28  4  0
 28 29  4  0
 29 30  4  0
 30 31  4  0
 24 32  4  0
 32 33  4  0
 33 34  1  0
 34 35  2  0
 34 36  1  0
 36 37  1  0
 37 38  1  0
 38 39  2  0
 38 40  1  0
 40 41  1  0
 41 42  2  0
 41 43  1  0
 43 44  1  0
 44 45  1  0
 45 46  1  0
 45 47  1  0
 45 48  1  0
 31 26  4  0
  2 23  4  0
  2 33  4  0
M  END
$$$$

     RDKit          3D

 34 39  0  0  0  0  0  0  0  0999 V2000
   -7.6410    4.9930    6.8080 C   0  0  0  0  0  0  0  0  0  1  0  0
   -7.7310    4.0530    5.7140 C   0  0  0  0  0  0  0  0  0  2  0  0
   -6.4520    5.6300    6.8680 N   0  0  0  0  0  0  0  0  0  0  0  0
   -6.2260    6.5240    7.8670 N   0  0  0  0  0  0  0  0  0  0  0  0
   -7.1930    6.7500    8.7820 C   0  0  0  0  0  0  0  0  0  0  0  0
   -8.4240    6.1170    8.7580 C   0  0  0  0  0  0  0  0  0  0  0  0
   -9.3950    6.3570    9.7450 N   0  0  0  0  0  0  0  0  0  0  0  0
  -10.5620    5.6840    9.7600 C   0  0  0  0  0  0  0  0  0  0  0  0
  -11.5770    5.6820   10.5960 N   0  0  0  0  0  0  0  0  0  0  0  0
  -12.4690    4.7490   10.1080 N   0  0  0  0  0  0  0  0  0  0  0  0
  -12.0160    4.1880    8.9920 N   0  0  0  0  0  0  0  0  0  0  0  0
  -10.8400    4.7900    8.7610 N   0  0  0  0  0  0  0  0  0  0  0  0
   -9.9950    4.4790    7.6090 C   0  0  0  0  0  0  0  0  0  0  0  0
   -8.6630    5.2070    7.7200 C   0  0  0  0  0  0  0  0  0  0  0  0
  -10.7490    4.8610    6.3730 C   0  0  0  0  0  0  0  0  0  0  0  0
  -11.0350    6.2020    6.1170 C   0  0  0  0  0  0  0  0  0  0  0  0
  -11.7370    6.5580    4.9650 C   0  0  0  0  0  0  0  0  0  0  0  0
  -12.1550    5.5730    4.0710 C   0  0  0  0  0  0  0  0  0  0  0  0
  -11.8700    4.2310    4.3270 C   0  0  0  0  0  0  0  0  0  0  0  0
  -11.1660    3.8760    5.4790 C   0  0  0  0  0  0  0  0  0  0  0  0
  -12.0160    7.8660    4.7150 O   0  0  0  0  0  0  0  0  0  0  0  0
   -6.8990    7.6510    9.7710 O   0  0  0  0  0  0  0  0  0  0  0  0
   -6.8652    3.0320    5.4585 N   0  0  0  0  0  0  0  0  0  0  0  0
   -7.3531    2.4037    4.3750 C   0  0  0  0  0  0  0  0  0  0  0  0
   -6.7839    1.3332    3.6894 C   0  0  0  0  0  0  0  0  0  0  0  0
   -7.4470    0.8639    2.5405 C   0  0  0  0  0  0  0  0  0  0  0  0
   -8.6438    1.4763    2.1053 C   0  0  0  0  0  0  0  0  0  0  0  0
   -9.1902    2.5599    2.8179 C   0  0  0  0  0  0  0  0  0  0  0  0
   -8.5148    2.9896    3.9635 C   0  0  0  0  0  0  0  0  0  0  0  0
   -8.8120    4.0063    4.7930 N   0  0  0  0  0  0  0  0  0  0  0  0
   -9.8557    5.0188    4.6001 C   0  0  0  0  0  0  0  0  0  0  0  0
   -9.3809    6.0694    3.6475 C   0  0  0  0  0  0  0  0  0  0  0  0
   -9.9602    6.2325    2.5417 O   0  0  0  0  0  0  0  0  0  0  0  0
   -8.2967    6.8712    3.9813 O   0  0  0  0  0  0  0  0  0  0  0  0
  1  3  4  0
  1 14  4  0
  1  2  1  0
  3  4  4  0
  4  5  4  0
  5  6  4  0
  5 22  1  0
  6  7  1  0
  6 14  4  0
  7  8  1  0
  8  9  4  0
  8 12  4  0
  9 10  4  0
 10 11  4  0
 11 12  4  0
 12 13  1  0
 13 14  1  0
 13 15  1  6
 15 16  4  0
 15 20  4  0
 16 17  4  0
 17 18  4  0
 17 21  1  0
 18 19  4  0
 19 20  4  0
 23 24  4  0
 24 25  4  0
 25 26  4  0
 26 27  4  0
 27 28  4  0
 28 29  4  0
 29 30  4  0
 30 31  1  0
 31 32  1  0
 32 33  2  0
 32 34  1  0
 29 24  4  0
  2 23  4  0
  2 30  4  0
M  CHG  1  34  -1
M  END
$$$$

     RDKit          3D

 38 43  0  0  0  0  0  0  0  0999 V2000
   -7.6410    4.9930    6.8080 C   0  0  0  0  0  0  0  0  0  1  0  0
   -7.7310    4.0530    5.7140 C   0  0  0  0  0  0  0  0  0  2  0  0
   -6.4520    5.6300    6.8680 N   0  0  0  0  0  0  0  0  0  0  0  0
   -6.2260    6.5240    7.8670 N   0  0  0  0  0  0  0  0  0  0  0  0
   -7.1930    6.7500    8.7820 C   0  0  0  0  0  0  0  0  0  0  0  0
   -8.4240    6.1170    8.7580 C   0  0  0  0  0  0  0  0  0  0  0  0
   -9.3950    6.3570    9.7450 N   0  0  0  0  0  0  0  0  0  0  0  0
  -10.5620    5.6840    9.7600 C   0  0  0  0  0  0  0  0  0  0  0  0
  -11.5770    5.6820   10.5960 N   0  0  0  0  0  0  0  0  0  0  0  0
  -12.4690    4.7490   10.1080 N   0  0  0  0  0  0  0  0  0  0  0  0
  -12.0160    4.1880    8.9920 N   0  0  0  0  0  0  0  0  0  0  0  0
  -10.8400    4.7900    8.7610 N   0  0  0  0  0  0  0  0  0  0  0  0
   -9.9950    4.4790    7.6090 C   0  0  0  0  0  0  0  0  0  0  0  0
   -8.6630    5.2070    7.7200 C   0  0  0  0  0  0  0  0  0  0  0  0
  -10.7490    4.8610    6.3730 C   0  0  0  0  0  0  0  0  0  0  0  0
  -11.0350    6.2020    6.1170 C   0  0  0  0  0  0  0  0  0  0  0  0
  -11.7370    6.5580    4.9650 C   0  0  0  0  0  0  0  0  0  0  0  0
  -12.1550    5.5730    4.0710 C   0  0  0  0  0  0  0  0  0  0  0  0
  -11.8700    4.2310    4.3270 C   0  0  0  0  0  0  0  0  0  0  0  0
  -11.1660    3.8760    5.4790 C   0  0  0  0  0  0  0  0  0  0  0  0
  -12.0160    7.8660    4.7150 O   0  0  0  0  0  0  0  0  0  0  0  0
   -6.8990    7.6510    9.7710 O   0  0  0  0  0  0  0  0  0  0  0  0
   -6.8332    3.0602    5.4554 N   0  0  0  0  0  0  0  0  0  0  0  0
   -7.1328    2.2840    4.3916 C   0  0  0  0  0  0  0  0  0  0  0  0
   -6.2660    1.2319    3.9418 N   0  0  0  0  0  0  0  0  0  0  0  0
   -6.5621    0.3202    2.8712 C   0  0  0  0  0  0  0  0  0  0  0  0
   -7.6992    0.3096    2.3269 O   0  0  0  0  0  0  0  0  0  0  0  0
   -5.5307   -0.6865    2.4447 C   0  0  0  0  0  0  0  0  0  0  0  0
   -5.6263   -1.9564    3.2715 C   0  0  0  0  0  0  0  0  0  0  0  0
   -5.1687   -3.0047    2.3073 C   0  0  0  0  0  0  0  0  0  0  0  0
   -5.5267   -2.4108    0.9579 C   0  0  0  0  0  0  0  0  0  0  0  0
   -5.6952   -1.0157    1.0831 O   0  0  0  0  0  0  0  0  0  0  0  0
   -8.5782    2.7622    3.6700 S   0  0  0  0  0  0  0  0  0  0  0  0
   -8.8532    3.9959    4.7815 C   0  0  0  0  0  0  0  0  0  0  0  0
   -9.9724    4.9905    4.6694 C   0  0  0  0  0  0  0  0  0  0  0  0
   -9.4413    6.3375    4.2928 C   0  0  0  0  0  0  0  0  0  0  0  0
   -9.5827    7.3159    5.0727 O   0  0  0  0  0  0  0  0  0  0  0  0
   -8.7916    6.5149    3.0776 O   0  0  0  0  0  0  0  0  0  0  0  0
  1  3  4  0
  1 14  4  0
  1  2  1  0
  3  4  4  0
  4  5  4  0
  5  6  4  0
  5 22  1  0
  6  7  1  0
  6 14  4  0
  7  8  1  0
  8  9  4  0
  8 12  4  0
  9 10  4  0
 10 11  4  0
 11 12  4  0
 12 13  1  0
 13 14  1  0
 13 15  1  6
 15 16  4  0
 15 20  4  0
 16 17  4  0
 17 18  4  0
 17 21  1  0
 18 19  4  0
 19 20  4  0
 23 24  4  0
 24 25  1  0
 25 26  1  0
 26 27  2  0
 26 28  1  0
 28 29  1  0
 29 30  1  0
 30 31  1  0
 31 32  1  0
 24 33  4  0
 33 34  4  0
 34 35  1  0
 35 36  1  0
 36 37  2  0
 36 38  1  0
 32 28  1  0
  2 23  4  0
  2 34  4  0
M  CHG  1  38  -1
M  END
$$$$

     RDKit          3D

 38 43  0  0  0  0  0  0  0  0999 V2000
   -7.6410    4.9930    6.8080 C   0  0  0  0  0  0  0  0  0  1  0  0
   -7.7310    4.0530    5.7140 C   0  0  0  0  0  0  0  0  0  2  0  0
   -6.4520    5.6300    6.8680 N   0  0  0  0  0  0  0  0  0  0  0  0
   -6.2260    6.5240    7.8670 N   0  0  0  0  0  0  0  0  0  0  0  0
   -7.1930    6.7500    8.7820 C   0  0  0  0  0  0  0  0  0  0  0  0
   -8.4240    6.1170    8.7580 C   0  0  0  0  0  0  0  0  0  0  0  0
   -9.3950    6.3570    9.7450 N   0  0  0  0  0  0  0  0  0  0  0  0
  -10.5620    5.6840    9.7600 C   0  0  0  0  0  0  0  0  0  0  0  0
  -11.5770    5.6820   10.5960 N   0  0  0  0  0  0  0  0  0  0  0  0
  -12.4690    4.7490   10.1080 N   0  0  0  0  0  0  0  0  0  0  0  0
  -12.0160    4.1880    8.9920 N   0  0  0  0  0  0  0  0  0  0  0  0
  -10.8400    4.7900    8.7610 N   0  0  0  0  0  0  0  0  0  0  0  0
   -9.9950    4.4790    7.6090 C   0  0  0  0  0  0  0  0  0  0  0  0
   -8.6630    5.2070    7.7200 C   0  0  0  0  0  0  0  0  0  0  0  0
  -10.7490    4.8610    6.3730 C   0  0  0  0  0  0  0  0  0  0  0  0
  -11.0350    6.2020    6.1170 C   0  0  0  0  0  0  0  0  0  0  0  0
  -11.7370    6.5580    4.9650 C   0  0  0  0  0  0  0  0  0  0  0  0
  -12.1550    5.5730    4.0710 C   0  0  0  0  0  0  0  0  0  0  0  0
  -11.8700    4.2310    4.3270 C   0  0  0  0  0  0  0  0  0  0  0  0
  -11.1660    3.8760    5.4790 C   0  0  0  0  0  0  0  0  0  0  0  0
  -12.0160    7.8660    4.7150 O   0  0  0  0  0  0  0  0  0  0  0  0
   -6.8990    7.6510    9.7710 O   0  0  0  0  0  0  0  0  0  0  0  0
   -6.8410    3.0505    5.4663 N   0  0  0  0  0  0  0  0  0  0  0  0
   -7.1413    2.2840    4.3952 C   0  0  0  0  0  0  0  0  0  0  0  0
   -6.3249    1.2048    3.9231 N   0  0  0  0  0  0  0  0  0  0  0  0
   -5.1041    0.7893    4.5552 C   0  0  0  0  0  0  0  0  0  0  0  0
   -4.7091    1.3435    5.6173 O   0  0  0  0  0  0  0  0  0  0  0  0
   -4.3207   -0.3587    3.9834 C   0  0  0  0  0  0  0  0  0  0  0  0
   -4.8056   -1.6860    4.5387 C   0  0  0  0  0  0  0  0  0  0  0  0
   -3.5619   -2.5173    4.5204 C   0  0  0  0  0  0  0  0  0  0  0  0
   -2.4564   -1.4859    4.6446 C   0  0  0  0  0  0  0  0  0  0  0  0
   -2.9488   -0.2158    4.2778 O   0  0  0  0  0  0  0  0  0  0  0  0
   -8.5701    2.7705    3.6590 S   0  0  0  0  0  0  0  0  0  0  0  0
   -8.8446    4.0052    4.7714 C   0  0  0  0  0  0  0  0  0  0  0  0
   -9.9430    5.0250    4.6367 C   0  0  0  0  0  0  0  0  0  0  0  0
   -9.4521    6.3382    4.0977 C   0  0  0  0  0  0  0  0  0  0  0  0
   -8.2481    6.5023    3.7620 O   0  0  0  0  0  0  0  0  0  0  0  0
  -10.3462    7.3917    3.9596 O   0  0  0  0  0  0  0  0  0  0  0  0
  1  3  4  0
  1 14  4  0
  1  2  1  0
  3  4  4  0
  4  5  4  0
  5  6  4  0
  5 22  1  0
  6  7  1  0
  6 14  4  0
  7  8  1  0
  8  9  4  0
  8 12  4  0
  9 10  4  0
 10 11  4  0
 11 12  4  0
 12 13  1  0
 13 14  1  0
 13 15  1  6
 15 16  4  0
 15 20  4  0
 16 17  4  0
 17 18  4  0
 17 21  1  0
 18 19  4  0
 19 20  4  0
 23 24  4  0
 24 25  1  0
 25 26  1  0
 26 27  2  0
 26 28  1  0
 28 29  1  0
 29 30  1  0
 30 31  1  0
 31 32  1  0
 24 33  4  0
 33 34  4  0
 34 35  1  0
 35 36  1  0
 36 37  2  0
 36 38  1  0
 32 28  1  0
  2 23  4  0
  2 34  4  0
M  CHG  1  38  -1
M  END
$$$$

     RDKit          3D

 41 46  0  0  0  0  0  0  0  0999 V2000
   -7.6410    4.9930    6.8080 C   0  0  0  0  0  0  0  0  0  1  0  0
   -7.7310    4.0530    5.7140 C   0  0  0  0  0  0  0  0  0  2  0  0
   -6.4520    5.6300    6.8680 N   0  0  0  0  0  0  0  0  0  0  0  0
   -6.2260    6.5240    7.8670 N   0  0  0  0  0  0  0  0  0  0  0  0
   -7.1930    6.7500    8.7820 C   0  0  0  0  0  0  0  0  0  0  0  0
   -8.4240    6.1170    8.7580 C   0  0  0  0  0  0  0  0  0  0  0  0
   -9.3950    6.3570    9.7450 N   0  0  0  0  0  0  0  0  0  0  0  0
  -10.5620    5.6840    9.7600 C   0  0  0  0  0  0  0  0  0  0  0  0
  -11.5770    5.6820   10.5960 N   0  0  0  0  0  0  0  0  0  0  0  0
  -12.4690    4.7490   10.1080 N   0  0  0  0  0  0  0  0  0  0  0  0
  -12.0160    4.1880    8.9920 N   0  0  0  0  0  0  0  0  0  0  0  0
  -10.8400    4.7900    8.7610 N   0  0  0  0  0  0  0  0  0  0  0  0
   -9.9950    4.4790    7.6090 C   0  0  0  0  0  0  0  0  0  0  0  0
   -8.6630    5.2070    7.7200 C   0  0  0  0  0  0  0  0  0  0  0  0
  -10.7490    4.8610    6.3730 C   0  0  0  0  0  0  0  0  0  0  0  0
  -11.0350    6.2020    6.1170 C   0  0  0  0  0  0  0  0  0  0  0  0
  -11.7370    6.5580    4.9650 C   0  0  0  0  0  0  0  0  0  0  0  0
  -12.1550    5.5730    4.0710 C   0  0  0  0  0  0  0  0  0  0  0  0
  -11.8700    4.2310    4.3270 C   0  0  0  0  0  0  0  0  0  0  0  0
  -11.1660    3.8760    5.4790 C   0  0  0  0  0  0  0  0  0  0  0  0
  -12.0160    7.8660    4.7150 O   0  0  0  0  0  0  0  0  0  0  0  0
   -6.8990    7.6510    9.7710 O   0  0  0  0  0  0  0  0  0  0  0  0
   -6.8363    3.0419    5.5573 N   0  0  0  0  0  0  0  0  0  0  0  0
   -6.8939    2.0661    4.6173 C   0  0  0  0  0  0  0  0  0  0  0  0
   -5.8395    1.0980    4.5664 N   0  0  0  0  0  0  0  0  0  0  0  0
   -7.9874    2.0153    3.7343 C   0  0  0  0  0  0  0  0  0  0  0  0
   -8.0920    0.9441    2.7659 C   0  0  0  0  0  0  0  0  0  0  0  0
   -8.1772    0.0885    1.9911 N   0  0  0  0  0  0  0  0  0  0  0  0
   -8.9914    3.0061    3.8212 C   0  0  0  0  0  0  0  0  0  1  0  0
  -10.1624    2.9540    2.9105 C   0  0  0  0  0  0  0  0  0  2  0  0
  -10.0031    3.2029    1.5424 C   0  0  0  0  0  0  0  0  0  0  0  0
  -11.1044    3.1535    0.6878 C   0  0  0  0  0  0  0  0  0  0  0  0
  -12.3800    2.8635    1.1864 C   0  0  0  0  0  0  0  0  0  0  0  0
  -13.7006    2.7498    0.0276 Cl  0  0  0  0  0  0  0  0  0  0  0  0
  -12.5591    2.6235    2.5706 C   0  0  0  0  0  0  0  0  0  0  0  0
  -13.8530    2.3345    3.1329 N   0  0  0  0  0  0  0  0  0  0  0  0
  -14.8914    2.8118    2.6314 O   0  0  0  0  0  0  0  0  0  0  0  0
  -13.9502    1.6502    4.3229 O   0  0  0  0  0  0  0  0  0  0  0  0
  -11.4367    2.6619    3.4173 C   0  0  0  0  0  0  0  0  0  0  0  0
   -8.8753    4.0402    4.7843 C   0  0  0  0  0  0  0  0  0  0  0  0
   -9.8901    5.1636    4.8327 C   0  0  0  0  0  0  0  0  0  0  0  0
  1  3  4  0
  1 14  4  0
  1  2  1  0
  3  4  4  0
  4  5  4  0
  5  6  4  0
  5 22  1  0
  6  7  1  0
  6 14  4  0
  7  8  1  0
  8  9  4  0
  8 12  4  0
  9 10  4  0
 10 11  4  0
 11 12  4  0
 12 13  1  0
 13 14  1  0
 13 15  1  6
 15 16  4  0
 15 20  4  0
 16 17  4  0
 17 18  4  0
 17 21  1  0
 18 19  4  0
 19 20  4  0
 23 24  4  0
 24 25  1  0
 24 26  4  0
 26 27  1  0
 27 28  3  0
 26 29  4  0
 29 30  1  0
 30 31  4  0
 31 32  4  0
 32 33  4  0
 33 34  1  0
 33 35  4  0
 35 36  1  0
 36 37  2  0
 36 38  1  0
 35 39  4  0
 29 40  4  0
 40 41  1  0
 39 30  4  0
  2 23  4  0
  2 40  4  0
M  CHG  2  36   1  38  -1
M  END
$$$$

     RDKit          3D

 41 46  0  0  0  0  0  0  0  0999 V2000
   -7.6410    4.9930    6.8080 C   0  0  0  0  0  0  0  0  0  1  0  0
   -7.7310    4.0530    5.7140 C   0  0  0  0  0  0  0  0  0  2  0  0
   -6.4520    5.6300    6.8680 N   0  0  0  0  0  0  0  0  0  0  0  0
   -6.2260    6.5240    7.8670 N   0  0  0  0  0  0  0  0  0  0  0  0
   -7.1930    6.7500    8.7820 C   0  0  0  0  0  0  0  0  0  0  0  0
   -8.4240    6.1170    8.7580 C   0  0  0  0  0  0  0  0  0  0  0  0
   -9.3950    6.3570    9.7450 N   0  0  0  0  0  0  0  0  0  0  0  0
  -10.5620    5.6840    9.7600 C   0  0  0  0  0  0  0  0  0  0  0  0
  -11.5770    5.6820   10.5960 N   0  0  0  0  0  0  0  0  0  0  0  0
  -12.4690    4.7490   10.1080 N   0  0  0  0  0  0  0  0  0  0  0  0
  -12.0160    4.1880    8.9920 N   0  0  0  0  0  0  0  0  0  0  0  0
  -10.8400    4.7900    8.7610 N   0  0  0  0  0  0  0  0  0  0  0  0
   -9.9950    4.4790    7.6090 C   0  0  0  0  0  0  0  0  0  0  0  0
   -8.6630    5.2070    7.7200 C   0  0  0  0  0  0  0  0  0  0  0  0
  -10.7490    4.8610    6.3730 C   0  0  0  0  0  0  0  0  0  0  0  0
  -11.0350    6.2020    6.1170 C   0  0  0  0  0  0  0  0  0  0  0  0
  -11.7370    6.5580    4.9650 C   0  0  0  0  0  0  0  0  0  0  0  0
  -12.1550    5.5730    4.0710 C   0  0  0  0  0  0  0  0  0  0  0  0
  -11.8700    4.2310    4.3270 C   0  0  0  0  0  0  0  0  0  0  0  0
  -11.1660    3.8760    5.4790 C   0  0  0  0  0  0  0  0  0  0  0  0
  -12.0160    7.8660    4.7150 O   0  0  0  0  0  0  0  0  0  0  0  0
   -6.8990    7.6510    9.7710 O   0  0  0  0  0  0  0  0  0  0  0  0
   -6.8361    3.0422    5.5570 N   0  0  0  0  0  0  0  0  0  0  0  0
   -6.8933    2.0667    4.6167 C   0  0  0  0  0  0  0  0  0  0  0  0
   -5.8385    1.0991    4.5652 N   0  0  0  0  0  0  0  0  0  0  0  0
   -7.9872    2.0157    3.7339 C   0  0  0  0  0  0  0  0  0  0  0  0
   -8.0908    0.9454    2.7643 C   0  0  0  0  0  0  0  0  0  0  0  0
   -8.1753    0.0907    1.9887 N   0  0  0  0  0  0  0  0  0  0  0  0
   -8.9916    3.0059    3.8216 C   0  0  0  0  0  0  0  0  0  1  0  0
  -10.1623    2.9539    2.9105 C   0  0  0  0  0  0  0  0  0  2  0  0
  -11.4332    2.6572    3.4160 C   0  0  0  0  0  0  0  0  0  0  0  0
  -12.5353    2.6158    2.5623 C   0  0  0  0  0  0  0  0  0  0  0  0
  -12.3844    2.8618    1.1924 C   0  0  0  0  0  0  0  0  0  0  0  0
  -13.8389    2.8616    0.2002 Cl  0  0  0  0  0  0  0  0  0  0  0  0
  -11.1025    3.1496    0.6639 C   0  0  0  0  0  0  0  0  0  0  0  0
  -10.8947    3.3970   -0.7394 N   0  0  0  0  0  0  0  0  0  0  0  0
  -11.6118    2.8479   -1.6006 O   0  0  0  0  0  0  0  0  0  0  0  0
   -9.8042    4.1253   -1.1569 O   0  0  0  0  0  0  0  0  0  0  0  0
  -10.0032    3.2024    1.5397 C   0  0  0  0  0  0  0  0  0  0  0  0
   -8.8757    4.0400    4.7846 C   0  0  0  0  0  0  0  0  0  0  0  0
   -9.8906    5.1633    4.8328 C   0  0  0  0  0  0  0  0  0  0  0  0
  1  3  4  0
  1 14  4  0
  1  2  1  0
  3  4  4  0
  4  5  4  0
  5  6  4  0
  5 22  1  0
  6  7  1  0
  6 14  4  0
  7  8  1  0
  8  9  4  0
  8 12  4  0
  9 10  4  0
 10 11  4  0
 11 12  4  0
 12 13  1  0
 13 14  1  0
 13 15  1  6
 15 16  4  0
 15 20  4  0
 16 17  4  0
 17 18  4  0
 17 21  1  0
 18 19  4  0
 19 20  4  0
 23 24  4  0
 24 25  1  0
 24 26  4  0
 26 27  1  0
 27 28  3  0
 26 29  4  0
 29 30  1  0
 30 31  4  0
 31 32  4  0
 32 33  4  0
 33 34  1  0
 33 35  4  0
 35 36  1  0
 36 37  2  0
 36 38  1  0
 35 39  4  0
 29 40  4  0
 40 41  1  0
 39 30  4  0
  2 23  4  0
  2 40  4  0
M  CHG  2  36   1  38  -1
M  END
$$$$

     RDKit          3D

 42 47  0  0  0  0  0  0  0  0999 V2000
   -7.6410    4.9930    6.8080 C   0  0  0  0  0  0  0  0  0  1  0  0
   -7.7310    4.0530    5.7140 C   0  0  0  0  0  0  0  0  0  2  0  0
   -6.4520    5.6300    6.8680 N   0  0  0  0  0  0  0  0  0  0  0  0
   -6.2260    6.5240    7.8670 N   0  0  0  0  0  0  0  0  0  0  0  0
   -7.1930    6.7500    8.7820 C   0  0  0  0  0  0  0  0  0  0  0  0
   -8.4240    6.1170    8.7580 C   0  0  0  0  0  0  0  0  0  0  0  0
   -9.3950    6.3570    9.7450 N   0  0  0  0  0  0  0  0  0  0  0  0
  -10.5620    5.6840    9.7600 C   0  0  0  0  0  0  0  0  0  0  0  0
  -11.5770    5.6820   10.5960 N   0  0  0  0  0  0  0  0  0  0  0  0
  -12.4690    4.7490   10.1080 N   0  0  0  0  0  0  0  0  0  0  0  0
  -12.0160    4.1880    8.9920 N   0  0  0  0  0  0  0  0  0  0  0  0
  -10.8400    4.7900    8.7610 N   0  0  0  0  0  0  0  0  0  0  0  0
   -9.9950    4.4790    7.6090 C   0  0  0  0  0  0  0  0  0  0  0  0
   -8.6630    5.2070    7.7200 C   0  0  0  0  0  0  0  0  0  0  0  0
  -10.7490    4.8610    6.3730 C   0  0  0  0  0  0  0  0  0  0  0  0
  -11.0350    6.2020    6.1170 C   0  0  0  0  0  0  0  0  0  0  0  0
  -11.7370    6.5580    4.9650 C   0  0  0  0  0  0  0  0  0  0  0  0
  -12.1550    5.5730    4.0710 C   0  0  0  0  0  0  0  0  0  0  0  0
  -11.8700    4.2310    4.3270 C   0  0  0  0  0  0  0  0  0  0  0  0
  -11.1660    3.8760    5.4790 C   0  0  0  0  0  0  0  0  0  0  0  0
  -12.0160    7.8660    4.7150 O   0  0  0  0  0  0  0  0  0  0  0  0
   -6.8990    7.6510    9.7710 O   0  0  0  0  0  0  0  0  0  0  0  0
   -6.8430    3.0878    5.3881 N   0  0  0  0  0  0  0  0  0  0  0  0
   -7.2757    2.4125    4.3327 N   0  0  0  0  0  0  0  0  0  0  0  0
   -8.4737    2.9308    4.0039 C   0  0  0  0  0  0  0  0  0  0  0  0
   -9.4340    2.3755    2.5804 S   0  0  0  0  0  0  0  0  0  0  0  0
   -8.8325    3.9343    4.8335 N   0  0  0  0  0  0  0  0  0  0  0  0
   -9.9705    4.8485    4.6774 C   0  0  0  0  0  0  0  0  0  0  0  0
   -9.7604    5.7477    3.4954 C   0  0  0  0  0  0  0  0  0  0  0  0
  -10.5939    5.7255    2.5477 O   0  0  0  0  0  0  0  0  0  0  0  0
   -8.6204    6.6227    3.4518 N   0  0  0  0  0  0  0  0  0  0  0  0
   -8.3363    7.5083    2.3615 C   0  0  0  0  0  0  0  0  0  0  0  0
   -9.1377    7.6606    1.2792 N   0  0  0  0  0  0  0  0  0  0  0  0
   -8.6337    8.5769    0.4073 C   0  0  0  0  0  0  0  0  0  0  0  0
   -9.3162    8.8766   -0.8905 C   0  0  0  0  0  0  0  0  0  0  0  0
   -7.4131    9.1351    0.7936 C   0  0  0  0  0  0  0  0  0  0  0  0
   -6.4723   10.3733   -0.0977 S   0  0  0  0  0  0  0  0  0  0  0  0
   -5.4883    9.1438   -1.0298 C   0  0  0  0  0  0  0  0  0  0  0  0
   -4.5252    9.7985   -1.9787 C   0  0  0  0  0  0  0  0  0  0  0  0
   -3.6043    8.9972   -2.7213 N   0  0  0  0  0  0  0  0  0  0  0  0
   -4.5214   11.0499   -2.1340 O   0  0  0  0  0  0  0  0  0  0  0  0
   -6.9661    8.4868    2.2810 S   0  0  0  0  0  0  0  0  0  0  0  0
  1  3  4  0
  1 14  4  0
  1  2  1  0
  3  4  4  0
  4  5  4  0
  5  6  4  0
  5 22  1  0
  6  7  1  0
  6 14  4  0
  7  8  1  0
  8  9  4  0
  8 12  4  0
  9 10  4  0
 10 11  4  0
 11 12  4  0
 12 13  1  0
 13 14  1  0
 13 15  1  6
 15 16  4  0
 15 20  4  0
 16 17  4  0
 17 18  4  0
 17 21  1  0
 18 19  4  0
 19 20  4  0
 23 24  4  0
 24 25  4  0
 25 26  1  0
 25 27  4  0
 27 28  1  0
 28 29  1  0
 29 30  2  0
 29 31  1  0
 31 32  1  0
 32 33  4  0
 33 34  4  0
 34 35  1  0
 34 36  4  0
 36 37  1  0
 37 38  1  0
 38 39  1  0
 39 40  1  0
 39 41  2  0
 36 42  4  0
 42 32  4  0
  2 23  4  0
  2 27  4  0
M  CHG  1  26  -1
M  END
$$$$

     RDKit          3D

 42 47  0  0  0  0  0  0  0  0999 V2000
   -7.6410    4.9930    6.8080 C   0  0  0  0  0  0  0  0  0  1  0  0
   -7.7310    4.0530    5.7140 C   0  0  0  0  0  0  0  0  0  2  0  0
   -6.4520    5.6300    6.8680 N   0  0  0  0  0  0  0  0  0  0  0  0
   -6.2260    6.5240    7.8670 N   0  0  0  0  0  0  0  0  0  0  0  0
   -7.1930    6.7500    8.7820 C   0  0  0  0  0  0  0  0  0  0  0  0
   -8.4240    6.1170    8.7580 C   0  0  0  0  0  0  0  0  0  0  0  0
   -9.3950    6.3570    9.7450 N   0  0  0  0  0  0  0  0  0  0  0  0
  -10.5620    5.6840    9.7600 C   0  0  0  0  0  0  0  0  0  0  0  0
  -11.5770    5.6820   10.5960 N   0  0  0  0  0  0  0  0  0  0  0  0
  -12.4690    4.7490   10.1080 N   0  0  0  0  0  0  0  0  0  0  0  0
  -12.0160    4.1880    8.9920 N   0  0  0  0  0  0  0  0  0  0  0  0
  -10.8400    4.7900    8.7610 N   0  0  0  0  0  0  0  0  0  0  0  0
   -9.9950    4.4790    7.6090 C   0  0  0  0  0  0  0  0  0  0  0  0
   -8.6630    5.2070    7.7200 C   0  0  0  0  0  0  0  0  0  0  0  0
  -10.7490    4.8610    6.3730 C   0  0  0  0  0  0  0  0  0  0  0  0
  -11.0350    6.2020    6.1170 C   0  0  0  0  0  0  0  0  0  0  0  0
  -11.7370    6.5580    4.9650 C   0  0  0  0  0  0  0  0  0  0  0  0
  -12.1550    5.5730    4.0710 C   0  0  0  0  0  0  0  0  0  0  0  0
  -11.8700    4.2310    4.3270 C   0  0  0  0  0  0  0  0  0  0  0  0
  -11.1660    3.8760    5.4790 C   0  0  0  0  0  0  0  0  0  0  0  0
  -12.0160    7.8660    4.7150 O   0  0  0  0  0  0  0  0  0  0  0  0
   -6.8990    7.6510    9.7710 O   0  0  0  0  0  0  0  0  0  0  0  0
   -6.8594    3.0686    5.4044 N   0  0  0  0  0  0  0  0  0  0  0  0
   -7.2890    2.4085    4.3395 N   0  0  0  0  0  0  0  0  0  0  0  0
   -8.4650    2.9585    3.9875 C   0  0  0  0  0  0  0  0  0  0  0  0
   -9.3929    2.4552    2.5244 S   0  0  0  0  0  0  0  0  0  0  0  0
   -8.8164    3.9618    4.8172 N   0  0  0  0  0  0  0  0  0  0  0  0
   -9.8966    4.9320    4.6158 C   0  0  0  0  0  0  0  0  0  0  0  0
   -9.4402    6.0232    3.6942 C   0  0  0  0  0  0  0  0  0  0  0  0
   -8.5430    6.8165    4.0862 O   0  0  0  0  0  0  0  0  0  0  0  0
  -10.0260    6.1582    2.3885 N   0  0  0  0  0  0  0  0  0  0  0  0
   -9.5628    7.0551    1.3680 C   0  0  0  0  0  0  0  0  0  0  0  0
  -10.1949    7.1833    0.1802 N   0  0  0  0  0  0  0  0  0  0  0  0
   -9.5691    8.0708   -0.6394 C   0  0  0  0  0  0  0  0  0  0  0  0
  -10.0836    8.3538   -2.0150 C   0  0  0  0  0  0  0  0  0  0  0  0
   -8.4082    8.6314   -0.1065 C   0  0  0  0  0  0  0  0  0  0  0  0
   -7.3221    9.8239   -0.8963 S   0  0  0  0  0  0  0  0  0  0  0  0
   -6.1201    8.5796   -1.4806 C   0  0  0  0  0  0  0  0  0  0  0  0
   -6.6713    7.8042   -2.6364 C   0  0  0  0  0  0  0  0  0  0  0  0
   -6.9909    8.4622   -3.8621 N   0  0  0  0  0  0  0  0  0  0  0  0
   -6.8470    6.5611   -2.5303 O   0  0  0  0  0  0  0  0  0  0  0  0
   -8.1832    8.0244    1.4440 S   0  0  0  0  0  0  0  0  0  0  0  0
  1  3  4  0
  1 14  4  0
  1  2  1  0
  3  4  4  0
  4  5  4  0
  5  6  4  0
  5 22  1  0
  6  7  1  0
  6 14  4  0
  7  8  1  0
  8  9  4  0
  8 12  4  0
  9 10  4  0
 10 11  4  0
 11 12  4  0
 12 13  1  0
 13 14  1  0
 13 15  1  6
 15 16  4  0
 15 20  4  0
 16 17  4  0
 17 18  4  0
 17 21  1  0
 18 19  4  0
 19 20  4  0
 23 24  4  0
 24 25  4  0
 25 26  1  0
 25 27  4  0
 27 28  1  0
 28 29  1  0
 29 30  2  0
 29 31  1  0
 31 32  1  0
 32 33  4  0
 33 34  4  0
 34 35  1  0
 34 36  4  0
 36 37  1  0
 37 38  1  0
 38 39  1  0
 39 40  1  0
 39 41  2  0
 36 42  4  0
 42 32  4  0
  2 23  4  0
  2 27  4  0
M  CHG  1  26  -1
M  END
$$$$

     RDKit          3D

 44 51  0  0  0  0  0  0  0  0999 V2000
   -7.6410    4.9930    6.8080 C   0  0  0  0  0  0  0  0  0  1  0  0
   -7.7310    4.0530    5.7140 C   0  0  0  0  0  0  0  0  0  2  0  0
   -6.4520    5.6300    6.8680 N   0  0  0  0  0  0  0  0  0  0  0  0
   -6.2260    6.5240    7.8670 N   0  0  0  0  0  0  0  0  0  0  0  0
   -7.1930    6.7500    8.7820 C   0  0  0  0  0  0  0  0  0  0  0  0
   -8.4240    6.1170    8.7580 C   0  0  0  0  0  0  0  0  0  0  0  0
   -9.3950    6.3570    9.7450 N   0  0  0  0  0  0  0  0  0  0  0  0
  -10.5620    5.6840    9.7600 C   0  0  0  0  0  0  0  0  0  0  0  0
  -11.5770    5.6820   10.5960 N   0  0  0  0  0  0  0  0  0  0  0  0
  -12.4690    4.7490   10.1080 N   0  0  0  0  0  0  0  0  0  0  0  0
  -12.0160    4.1880    8.9920 N   0  0  0  0  0  0  0  0  0  0  0  0
  -10.8400    4.7900    8.7610 N   0  0  0  0  0  0  0  0  0  0  0  0
   -9.9950    4.4790    7.6090 C   0  0  0  0  0  0  0  0  0  0  0  0
   -8.6630    5.2070    7.7200 C   0  0  0  0  0  0  0  0  0  0  0  0
  -10.7490    4.8610    6.3730 C   0  0  0  0  0  0  0  0  0  0  0  0
  -11.0350    6.2020    6.1170 C   0  0  0  0  0  0  0  0  0  0  0  0
  -11.7370    6.5580    4.9650 C   0  0  0  0  0  0  0  0  0  0  0  0
  -12.1550    5.5730    4.0710 C   0  0  0  0  0  0  0  0  0  0  0  0
  -11.8700    4.2310    4.3270 C   0  0  0  0  0  0  0  0  0  0  0  0
  -11.1660    3.8760    5.4790 C   0  0  0  0  0  0  0  0  0  0  0  0
  -12.0160    7.8660    4.7150 O   0  0  0  0  0  0  0  0  0  0  0  0
   -6.8990    7.6510    9.7710 O   0  0  0  0  0  0  0  0  0  0  0  0
   -8.8994    4.0829    4.8361 C   0  0  0  0  0  0  0  0  0  0  0  0
   -9.8111    5.0786    4.9813 F   0  0  0  0  0  0  0  0  0  0  0  0
   -9.0822    3.1450    3.8260 C   0  0  0  0  0  0  0  0  0  0  0  0
   -8.1459    2.1138    3.6158 C   0  0  0  0  0  0  0  0  0  0  0  0
   -8.3604    1.1379    2.6180 C   0  0  0  0  0  0  0  0  0  0  0  0
   -9.4256    1.1993    1.8661 N   0  0  0  0  0  0  0  0  0  0  0  0
   -9.8533    0.0743    0.5637 S   0  0  0  0  0  0  0  0  0  0  0  0
   -9.0084    1.0633   -0.6645 C   0  0  0  0  0  0  0  0  0  0  0  0
   -9.6882    2.0821   -1.3404 C   0  0  0  0  0  0  0  0  0  0  0  0
   -9.0035    2.8473   -2.2869 C   0  0  0  0  0  0  0  0  0  0  0  0
   -7.6561    2.5876   -2.5471 C   0  0  0  0  0  0  0  0  0  0  0  0
   -7.0120    1.5604   -1.8526 C   0  0  0  0  0  0  0  0  0  0  0  0
   -7.6959    0.8265   -0.9343 N   0  0  0  0  0  0  0  0  0  0  0  0
   -7.4226    0.1101    2.4683 C   0  0  0  0  0  0  0  0  0  0  0  0
   -6.2764    0.0935    3.2517 C   0  0  0  0  0  0  0  0  0  0  0  0
   -6.0211    1.0803    4.1628 N   0  0  0  0  0  0  0  0  0  0  0  0
   -4.7271    1.0239    4.8696 C   0  0  0  0  0  0  0  0  0  0  0  0
   -3.8099    2.2116    4.5889 C   0  0  0  0  0  0  0  0  0  0  0  0
   -3.5018    0.8660    3.9678 C   0  0  0  0  0  0  0  0  0  0  0  0
   -6.9755    2.0478    4.4265 C   0  0  0  0  0  0  0  0  0  0  0  0
   -6.8417    2.9788    5.4945 C   0  0  0  0  0  0  0  0  0  0  0  0
   -5.8491    2.8594    6.4133 F   0  0  0  0  0  0  0  0  0  0  0  0
  1  3  4  0
  1 14  4  0
  1  2  1  0
  3  4  4  0
  4  5  4  0
  5  6  4  0
  5 22  1  0
  6  7  1  0
  6 14  4  0
  7  8  1  0
  8  9  4  0
  8 12  4  0
  9 10  4  0
 10 11  4  0
 11 12  4  0
 12 13  1  0
 13 14  1  0
 13 15  1  6
 15 16  4  0
 15 20  4  0
 16 17  4  0
 17 18  4  0
 17 21  1  0
 18 19  4  0
 19 20  4  0
 23 24  1  0
 23 25  4  0
 25 26  4  0
 26 27  4  0
 27 28  2  3
 28 29  1  0
 29 30  1  0
 30 31  4  0
 31 32  4  0
 32 33  4  0
 33 34  4  0
 34 35  4  0
 27 36  4  0
 36 37  4  0
 37 38  4  0
 38 39  1  0
 39 40  1  0
 40 41  1  0
 38 42  4  0
 42 43  4  0
 43 44  1  0
 42 26  4  0
 35 30  4  0
 41 39  1  0
  2 23  4  0
  2 43  4  0
M  END
$$$$

     RDKit          3D

 44 51  0  0  0  0  0  0  0  0999 V2000
   -7.6410    4.9930    6.8080 C   0  0  0  0  0  0  0  0  0  1  0  0
   -7.7310    4.0530    5.7140 C   0  0  0  0  0  0  0  0  0  2  0  0
   -6.4520    5.6300    6.8680 N   0  0  0  0  0  0  0  0  0  0  0  0
   -6.2260    6.5240    7.8670 N   0  0  0  0  0  0  0  0  0  0  0  0
   -7.1930    6.7500    8.7820 C   0  0  0  0  0  0  0  0  0  0  0  0
   -8.4240    6.1170    8.7580 C   0  0  0  0  0  0  0  0  0  0  0  0
   -9.3950    6.3570    9.7450 N   0  0  0  0  0  0  0  0  0  0  0  0
  -10.5620    5.6840    9.7600 C   0  0  0  0  0  0  0  0  0  0  0  0
  -11.5770    5.6820   10.5960 N   0  0  0  0  0  0  0  0  0  0  0  0
  -12.4690    4.7490   10.1080 N   0  0  0  0  0  0  0  0  0  0  0  0
  -12.0160    4.1880    8.9920 N   0  0  0  0  0  0  0  0  0  0  0  0
  -10.8400    4.7900    8.7610 N   0  0  0  0  0  0  0  0  0  0  0  0
   -9.9950    4.4790    7.6090 C   0  0  0  0  0  0  0  0  0  0  0  0
   -8.6630    5.2070    7.7200 C   0  0  0  0  0  0  0  0  0  0  0  0
  -10.7490    4.8610    6.3730 C   0  0  0  0  0  0  0  0  0  0  0  0
  -11.0350    6.2020    6.1170 C   0  0  0  0  0  0  0  0  0  0  0  0
  -11.7370    6.5580    4.9650 C   0  0  0  0  0  0  0  0  0  0  0  0
  -12.1550    5.5730    4.0710 C   0  0  0  0  0  0  0  0  0  0  0  0
  -11.8700    4.2310    4.3270 C   0  0  0  0  0  0  0  0  0  0  0  0
  -11.1660    3.8760    5.4790 C   0  0  0  0  0  0  0  0  0  0  0  0
  -12.0160    7.8660    4.7150 O   0  0  0  0  0  0  0  0  0  0  0  0
   -6.8990    7.6510    9.7710 O   0  0  0  0  0  0  0  0  0  0  0  0
   -6.8703    2.9560    5.5377 C   0  0  0  0  0  0  0  0  0  0  0  0
   -5.8270    2.8246    6.3971 F   0  0  0  0  0  0  0  0  0  0  0  0
   -7.0441    2.0040    4.5398 C   0  0  0  0  0  0  0  0  0  0  0  0
   -8.1275    2.0828    3.6432 C   0  0  0  0  0  0  0  0  0  0  0  0
   -8.3264    1.0836    2.6651 C   0  0  0  0  0  0  0  0  0  0  0  0
   -7.4869    0.0886    2.5715 N   0  0  0  0  0  0  0  0  0  0  0  0
   -7.5592   -1.2359    1.3943 S   0  0  0  0  0  0  0  0  0  0  0  0
   -6.4595   -0.3887    0.2652 C   0  0  0  0  0  0  0  0  0  0  0  0
   -6.9753    0.4324   -0.7438 C   0  0  0  0  0  0  0  0  0  0  0  0
   -6.0948    1.0892   -1.6058 C   0  0  0  0  0  0  0  0  0  0  0  0
   -4.7173    0.9180   -1.4541 C   0  0  0  0  0  0  0  0  0  0  0  0
   -4.2402    0.0870   -0.4373 C   0  0  0  0  0  0  0  0  0  0  0  0
   -5.1137   -0.5429    0.3935 N   0  0  0  0  0  0  0  0  0  0  0  0
   -9.4405    1.1768    1.8244 C   0  0  0  0  0  0  0  0  0  0  0  0
  -10.2911    2.2702    1.9140 C   0  0  0  0  0  0  0  0  0  0  0  0
  -10.0554    3.2872    2.7971 N   0  0  0  0  0  0  0  0  0  0  0  0
  -10.9637    4.4488    2.7414 C   0  0  0  0  0  0  0  0  0  0  0  0
  -11.1827    5.0385    1.3467 C   0  0  0  0  0  0  0  0  0  0  0  0
  -10.2828    5.7525    2.3321 C   0  0  0  0  0  0  0  0  0  0  0  0
   -9.0391    3.1756    3.7310 C   0  0  0  0  0  0  0  0  0  0  0  0
   -8.8733    4.1075    4.7951 C   0  0  0  0  0  0  0  0  0  0  0  0
   -9.7649    5.1096    5.0033 F   0  0  0  0  0  0  0  0  0  0  0  0
  1  3  4  0
  1 14  4  0
  1  2  1  0
  3  4  4  0
  4  5  4  0
  5  6  4  0
  5 22  1  0
  6  7  1  0
  6 14  4  0
  7  8  1  0
  8  9  4  0
  8 12  4  0
  9 10  4  0
 10 11  4  0
 11 12  4  0
 12 13  1  0
 13 14  1  0
 13 15  1  6
 15 16  4  0
 15 20  4  0
 16 17  4  0
 17 18  4  0
 17 21  1  0
 18 19  4  0
 19 20  4  0
 23 24  1  0
 23 25  4  0
 25 26  4  0
 26 27  4  0
 27 28  2  3
 28 29  1  0
 29 30  1  0
 30 31  4  0
 31 32  4  0
 32 33  4  0
 33 34  4  0
 34 35  4  0
 27 36  4  0
 36 37  4  0
 37 38  4  0
 38 39  1  0
 39 40  1  0
 40 41  1  0
 38 42  4  0
 42 43  4  0
 43 44  1  0
 42 26  4  0
 35 30  4  0
 41 39  1  0
  2 23  4  0
  2 43  4  0
M  END
$$$$

     RDKit          3D

 44 51  0  0  0  0  0  0  0  0999 V2000
   -7.6410    4.9930    6.8080 C   0  0  0  0  0  0  0  0  0  1  0  0
   -7.7310    4.0530    5.7140 C   0  0  0  0  0  0  0  0  0  2  0  0
   -6.4520    5.6300    6.8680 N   0  0  0  0  0  0  0  0  0  0  0  0
   -6.2260    6.5240    7.8670 N   0  0  0  0  0  0  0  0  0  0  0  0
   -7.1930    6.7500    8.7820 C   0  0  0  0  0  0  0  0  0  0  0  0
   -8.4240    6.1170    8.7580 C   0  0  0  0  0  0  0  0  0  0  0  0
   -9.3950    6.3570    9.7450 N   0  0  0  0  0  0  0  0  0  0  0  0
  -10.5620    5.6840    9.7600 C   0  0  0  0  0  0  0  0  0  0  0  0
  -11.5770    5.6820   10.5960 N   0  0  0  0  0  0  0  0  0  0  0  0
  -12.4690    4.7490   10.1080 N   0  0  0  0  0  0  0  0  0  0  0  0
  -12.0160    4.1880    8.9920 N   0  0  0  0  0  0  0  0  0  0  0  0
  -10.8400    4.7900    8.7610 N   0  0  0  0  0  0  0  0  0  0  0  0
   -9.9950    4.4790    7.6090 C   0  0  0  0  0  0  0  0  0  0  0  0
   -8.6630    5.2070    7.7200 C   0  0  0  0  0  0  0  0  0  0  0  0
  -10.7490    4.8610    6.3730 C   0  0  0  0  0  0  0  0  0  0  0  0
  -11.0350    6.2020    6.1170 C   0  0  0  0  0  0  0  0  0  0  0  0
  -11.7370    6.5580    4.9650 C   0  0  0  0  0  0  0  0  0  0  0  0
  -12.1550    5.5730    4.0710 C   0  0  0  0  0  0  0  0  0  0  0  0
  -11.8700    4.2310    4.3270 C   0  0  0  0  0  0  0  0  0  0  0  0
  -11.1660    3.8760    5.4790 C   0  0  0  0  0  0  0  0  0  0  0  0
  -12.0160    7.8660    4.7150 O   0  0  0  0  0  0  0  0  0  0  0  0
   -6.8990    7.6510    9.7710 O   0  0  0  0  0  0  0  0  0  0  0  0
   -8.8633    4.1291    4.7971 C   0  0  0  0  0  0  0  0  0  0  0  0
   -9.7459    5.1536    4.9213 F   0  0  0  0  0  0  0  0  0  0  0  0
   -9.0095    3.2392    3.7391 C   0  0  0  0  0  0  0  0  0  0  0  0
   -8.1020    2.1781    3.5534 C   0  0  0  0  0  0  0  0  0  0  0  0
   -8.2266    1.3099    2.4467 C   0  0  0  0  0  0  0  0  0  0  0  0
   -9.2043    1.4744    1.5975 N   0  0  0  0  0  0  0  0  0  0  0  0
   -9.5231    0.4808    0.1635 S   0  0  0  0  0  0  0  0  0  0  0  0
  -10.5903   -0.6252    1.0794 C   0  0  0  0  0  0  0  0  0  0  0  0
  -11.9596   -0.3594    1.1840 C   0  0  0  0  0  0  0  0  0  0  0  0
  -12.7699   -1.2323    1.9133 C   0  0  0  0  0  0  0  0  0  0  0  0
  -12.2072   -2.3544    2.5255 C   0  0  0  0  0  0  0  0  0  0  0  0
  -10.8354   -2.5867    2.3969 C   0  0  0  0  0  0  0  0  0  0  0  0
  -10.0630   -1.7248    1.6828 N   0  0  0  0  0  0  0  0  0  0  0  0
   -7.2802    0.2935    2.2780 C   0  0  0  0  0  0  0  0  0  0  0  0
   -6.2767    0.1131    3.2202 C   0  0  0  0  0  0  0  0  0  0  0  0
   -6.1994    0.8948    4.3393 N   0  0  0  0  0  0  0  0  0  0  0  0
   -5.1557    0.5549    5.3254 C   0  0  0  0  0  0  0  0  0  0  0  0
   -5.1045   -0.9174    5.7389 C   0  0  0  0  0  0  0  0  0  0  0  0
   -5.7003    0.1075    6.6797 C   0  0  0  0  0  0  0  0  0  0  0  0
   -7.0394    1.9861    4.4847 C   0  0  0  0  0  0  0  0  0  0  0  0
   -6.8761    2.9427    5.5269 C   0  0  0  0  0  0  0  0  0  0  0  0
   -5.8238    2.8846    6.3823 F   0  0  0  0  0  0  0  0  0  0  0  0
  1  3  4  0
  1 14  4  0
  1  2  1  0
  3  4  4  0
  4  5  4  0
  5  6  4  0
  5 22  1  0
  6  7  1  0
  6 14  4  0
  7  8  1  0
  8  9  4  0
  8 12  4  0
  9 10  4  0
 10 11  4  0
 11 12  4  0
 12 13  1  0
 13 14  1  0
 13 15  1  6
 15 16  4  0
 15 20  4  0
 16 17  4  0
 17 18  4  0
 17 21  1  0
 18 19  4  0
 19 20  4  0
 23 24  1  0
 23 25  4  0
 25 26  4  0
 26 27  4  0
 27 28  2  3
 28 29  1  0
 29 30  1  0
 30 31  4  0
 31 32  4  0
 32 33  4  0
 33 34  4  0
 34 35  4  0
 27 36  4  0
 36 37  4  0
 37 38  4  0
 38 39  1  0
 39 40  1  0
 40 41  1  0
 38 42  4  0
 42 43  4  0
 43 44  1  0
 42 26  4  0
 35 30  4  0
 41 39  1  0
  2 23  4  0
  2 43  4  0
M  END
$$$$

     RDKit          3D

 39 45  0  0  0  0  0  0  0  0999 V2000
   -7.6410    4.9930    6.8080 C   0  0  0  0  0  0  0  0  0  1  0  0
   -7.7310    4.0530    5.7140 C   0  0  0  0  0  0  0  0  0  2  0  0
   -6.4520    5.6300    6.8680 N   0  0  0  0  0  0  0  0  0  0  0  0
   -6.2260    6.5240    7.8670 N   0  0  0  0  0  0  0  0  0  0  0  0
   -7.1930    6.7500    8.7820 C   0  0  0  0  0  0  0  0  0  0  0  0
   -8.4240    6.1170    8.7580 C   0  0  0  0  0  0  0  0  0  0  0  0
   -9.3950    6.3570    9.7450 N   0  0  0  0  0  0  0  0  0  0  0  0
  -10.5620    5.6840    9.7600 C   0  0  0  0  0  0  0  0  0  0  0  0
  -11.5770    5.6820   10.5960 N   0  0  0  0  0  0  0  0  0  0  0  0
  -12.4690    4.7490   10.1080 N   0  0  0  0  0  0  0  0  0  0  0  0
  -12.0160    4.1880    8.9920 N   0  0  0  0  0  0  0  0  0  0  0  0
  -10.8400    4.7900    8.7610 N   0  0  0  0  0  0  0  0  0  0  0  0
   -9.9950    4.4790    7.6090 C   0  0  0  0  0  0  0  0  0  0  0  0
   -8.6630    5.2070    7.7200 C   0  0  0  0  0  0  0  0  0  0  0  0
  -10.7490    4.8610    6.3730 C   0  0  0  0  0  0  0  0  0  0  0  0
  -11.0350    6.2020    6.1170 C   0  0  0  0  0  0  0  0  0  0  0  0
  -11.7370    6.5580    4.9650 C   0  0  0  0  0  0  0  0  0  0  0  0
  -12.1550    5.5730    4.0710 C   0  0  0  0  0  0  0  0  0  0  0  0
  -11.8700    4.2310    4.3270 C   0  0  0  0  0  0  0  0  0  0  0  0
  -11.1660    3.8760    5.4790 C   0  0  0  0  0  0  0  0  0  0  0  0
  -12.0160    7.8660    4.7150 O   0  0  0  0  0  0  0  0  0  0  0  0
   -6.8990    7.6510    9.7710 O   0  0  0  0  0  0  0  0  0  0  0  0
   -6.7498    3.2952    5.1703 N   0  0  0  0  0  0  0  0  0  0  0  0
   -7.3293    2.5180    4.2305 C   0  0  0  0  0  0  0  0  0  0  0  0
   -6.6663    1.6252    3.3914 C   0  0  0  0  0  0  0  0  0  0  0  0
   -7.4312    0.9352    2.4368 C   0  0  0  0  0  0  0  0  0  0  0  0
   -8.8194    1.1578    2.3408 C   0  0  0  0  0  0  0  0  0  0  0  0
   -9.8549    0.2374    1.0271 Br  0  0  0  0  0  0  0  0  0  0  0  0
   -9.4341    2.0693    3.2122 C   0  0  0  0  0  0  0  0  0  0  0  0
   -8.6575    2.6998    4.1312 N   0  0  0  0  0  0  0  0  0  0  0  0
   -8.9624    3.6356    5.0419 C   0  0  0  0  0  0  0  0  0  0  0  0
  -10.2549    4.2412    5.1705 N   0  0  0  0  0  0  0  0  0  0  0  0
  -10.4503    5.6686    4.9285 C   0  0  0  0  0  0  0  0  0  0  0  0
  -10.7701    5.9005    3.4765 C   0  0  0  0  0  0  0  0  0  0  0  0
   -9.7691    5.7463    2.5022 C   0  0  0  0  0  0  0  0  0  0  0  0
  -10.0673    5.9358    1.1494 C   0  0  0  0  0  0  0  0  0  0  0  0
  -11.3636    6.2835    0.7601 C   0  0  0  0  0  0  0  0  0  0  0  0
  -12.3644    6.4409    1.7229 C   0  0  0  0  0  0  0  0  0  0  0  0
  -12.0711    6.2498    3.0771 C   0  0  0  0  0  0  0  0  0  0  0  0
  1  3  4  0
  1 14  4  0
  1  2  1  0
  3  4  4  0
  4  5  4  0
  5  6  4  0
  5 22  1  0
  6  7  1  0
  6 14  4  0
  7  8  1  0
  8  9  4  0
  8 12  4  0
  9 10  4  0
 10 11  4  0
 11 12  4  0
 12 13  1  0
 13 14  1  0
 13 15  1  6
 15 16  4  0
 15 20  4  0
 16 17  4  0
 17 18  4  0
 17 21  1  0
 18 19  4  0
 19 20  4  0
 23 24  4  0
 24 25  4  0
 25 26  4  0
 26 27  4  0
 27 28  1  0
 27 29  4  0
 29 30  4  0
 30 31  4  0
 31 32  1  0
 32 33  1  0
 33 34  1  0
 34 35  4  0
 35 36  4  0
 36 37  4  0
 37 38  4  0
 38 39  4  0
 39 34  4  0
 30 24  4  0
  2 23  4  0
  2 31  4  0
M  END
$$$$

     RDKit          3D

 42 47  0  0  0  0  0  0  0  0999 V2000
   -7.6410    4.9930    6.8080 C   0  0  0  0  0  0  0  0  0  1  0  0
   -7.7310    4.0530    5.7140 C   0  0  0  0  0  0  0  0  0  2  0  0
   -6.4520    5.6300    6.8680 N   0  0  0  0  0  0  0  0  0  0  0  0
   -6.2260    6.5240    7.8670 N   0  0  0  0  0  0  0  0  0  0  0  0
   -7.1930    6.7500    8.7820 C   0  0  0  0  0  0  0  0  0  0  0  0
   -8.4240    6.1170    8.7580 C   0  0  0  0  0  0  0  0  0  0  0  0
   -9.3950    6.3570    9.7450 N   0  0  0  0  0  0  0  0  0  0  0  0
  -10.5620    5.6840    9.7600 C   0  0  0  0  0  0  0  0  0  0  0  0
  -11.5770    5.6820   10.5960 N   0  0  0  0  0  0  0  0  0  0  0  0
  -12.4690    4.7490   10.1080 N   0  0  0  0  0  0  0  0  0  0  0  0
  -12.0160    4.1880    8.9920 N   0  0  0  0  0  0  0  0  0  0  0  0
  -10.8400    4.7900    8.7610 N   0  0  0  0  0  0  0  0  0  0  0  0
   -9.9950    4.4790    7.6090 C   0  0  0  0  0  0  0  0  0  0  0  0
   -8.6630    5.2070    7.7200 C   0  0  0  0  0  0  0  0  0  0  0  0
  -10.7490    4.8610    6.3730 C   0  0  0  0  0  0  0  0  0  0  0  0
  -11.0350    6.2020    6.1170 C   0  0  0  0  0  0  0  0  0  0  0  0
  -11.7370    6.5580    4.9650 C   0  0  0  0  0  0  0  0  0  0  0  0
  -12.1550    5.5730    4.0710 C   0  0  0  0  0  0  0  0  0  0  0  0
  -11.8700    4.2310    4.3270 C   0  0  0  0  0  0  0  0  0  0  0  0
  -11.1660    3.8760    5.4790 C   0  0  0  0  0  0  0  0  0  0  0  0
  -12.0160    7.8660    4.7150 O   0  0  0  0  0  0  0  0  0  0  0  0
   -6.8990    7.6510    9.7710 O   0  0  0  0  0  0  0  0  0  0  0  0
   -6.7947    3.1873    5.2740 N   0  0  0  0  0  0  0  0  0  0  0  0
   -7.2889    2.4327    4.3006 N   0  0  0  0  0  0  0  0  0  0  0  0
   -8.5726    2.8019    4.1316 C   0  0  0  0  0  0  0  0  0  0  0  0
   -9.6583    2.0901    2.8933 S   0  0  0  0  0  0  0  0  0  0  0  0
  -10.3776    0.8473    4.0237 C   0  0  0  0  0  0  0  0  0  0  0  0
   -9.3492   -0.1622    4.4593 C   0  0  0  0  0  0  0  0  0  0  0  0
   -9.0867   -0.2695    5.6871 O   0  0  0  0  0  0  0  0  0  0  0  0
   -8.6156   -0.9629    3.5190 N   0  0  0  0  0  0  0  0  0  0  0  0
   -8.9804   -1.1124    2.1400 C   0  0  0  0  0  0  0  0  0  0  0  0
  -10.2528   -1.5886    1.7944 C   0  0  0  0  0  0  0  0  0  0  0  0
  -10.6157   -1.7534    0.4492 C   0  0  0  0  0  0  0  0  0  0  0  0
  -11.9872   -2.2616    0.1000 C   0  0  0  0  0  0  0  0  0  0  0  0
   -9.6781   -1.4565   -0.5576 C   0  0  0  0  0  0  0  0  0  0  0  0
  -10.0695   -1.6521   -2.2635 Cl  0  0  0  0  0  0  0  0  0  0  0  0
   -8.4008   -1.0018   -0.2131 C   0  0  0  0  0  0  0  0  0  0  0  0
   -8.0411   -0.8282    1.1361 C   0  0  0  0  0  0  0  0  0  0  0  0
   -6.7715   -0.3632    1.5155 O   0  0  0  0  0  0  0  0  0  0  0  0
   -5.7357   -0.0110    0.6046 C   0  0  0  0  0  0  0  0  0  0  0  0
   -8.9112    3.7836    4.9835 N   0  0  0  0  0  0  0  0  0  0  0  0
  -10.1096    4.5165    4.9970 N   0  0  0  0  0  0  0  0  0  0  0  0
  1  3  4  0
  1 14  4  0
  1  2  1  0
  3  4  4  0
  4  5  4  0
  5  6  4  0
  5 22  1  0
  6  7  1  0
  6 14  4  0
  7  8  1  0
  8  9  4  0
  8 12  4  0
  9 10  4  0
 10 11  4  0
 11 12  4  0
 12 13  1  0
 13 14  1  0
 13 15  1  6
 15 16  4  0
 15 20  4  0
 16 17  4  0
 17 18  4  0
 17 21  1  0
 18 19  4  0
 19 20  4  0
 23 24  4  0
 24 25  4  0
 25 26  1  0
 26 27  1  0
 27 28  1  0
 28 29  2  0
 28 30  1  0
 30 31  1  0
 31 32  4  0
 32 33  4  0
 33 34  1  0
 33 35  4  0
 35 36  1  0
 35 37  4  0
 37 38  4  0
 38 39  1  0
 39 40  1  0
 25 41  4  0
 41 42  1  0
 38 31  4  0
  2 23  4  0
  2 41  4  0
M  END
$$$$

     RDKit          3D

 42 47  0  0  0  0  0  0  0  0999 V2000
   -7.6410    4.9930    6.8080 C   0  0  0  0  0  0  0  0  0  1  0  0
   -7.7310    4.0530    5.7140 C   0  0  0  0  0  0  0  0  0  2  0  0
   -6.4520    5.6300    6.8680 N   0  0  0  0  0  0  0  0  0  0  0  0
   -6.2260    6.5240    7.8670 N   0  0  0  0  0  0  0  0  0  0  0  0
   -7.1930    6.7500    8.7820 C   0  0  0  0  0  0  0  0  0  0  0  0
   -8.4240    6.1170    8.7580 C   0  0  0  0  0  0  0  0  0  0  0  0
   -9.3950    6.3570    9.7450 N   0  0  0  0  0  0  0  0  0  0  0  0
  -10.5620    5.6840    9.7600 C   0  0  0  0  0  0  0  0  0  0  0  0
  -11.5770    5.6820   10.5960 N   0  0  0  0  0  0  0  0  0  0  0  0
  -12.4690    4.7490   10.1080 N   0  0  0  0  0  0  0  0  0  0  0  0
  -12.0160    4.1880    8.9920 N   0  0  0  0  0  0  0  0  0  0  0  0
  -10.8400    4.7900    8.7610 N   0  0  0  0  0  0  0  0  0  0  0  0
   -9.9950    4.4790    7.6090 C   0  0  0  0  0  0  0  0  0  0  0  0
   -8.6630    5.2070    7.7200 C   0  0  0  0  0  0  0  0  0  0  0  0
  -10.7490    4.8610    6.3730 C   0  0  0  0  0  0  0  0  0  0  0  0
  -11.0350    6.2020    6.1170 C   0  0  0  0  0  0  0  0  0  0  0  0
  -11.7370    6.5580    4.9650 C   0  0  0  0  0  0  0  0  0  0  0  0
  -12.1550    5.5730    4.0710 C   0  0  0  0  0  0  0  0  0  0  0  0
  -11.8700    4.2310    4.3270 C   0  0  0  0  0  0  0  0  0  0  0  0
  -11.1660    3.8760    5.4790 C   0  0  0  0  0  0  0  0  0  0  0  0
  -12.0160    7.8660    4.7150 O   0  0  0  0  0  0  0  0  0  0  0  0
   -6.8990    7.6510    9.7710 O   0  0  0  0  0  0  0  0  0  0  0  0
   -6.7918    3.1915    5.2711 N   0  0  0  0  0  0  0  0  0  0  0  0
   -7.2823    2.4436    4.2905 N   0  0  0  0  0  0  0  0  0  0  0  0
   -8.5648    2.8153    4.1169 C   0  0  0  0  0  0  0  0  0  0  0  0
   -9.6488    2.1084    2.8729 S   0  0  0  0  0  0  0  0  0  0  0  0
   -9.3166    3.3868    1.6101 C   0  0  0  0  0  0  0  0  0  0  0  0
   -8.0664    3.0727    0.8347 C   0  0  0  0  0  0  0  0  0  0  0  0
   -6.9510    3.1555    1.4137 O   0  0  0  0  0  0  0  0  0  0  0  0
   -8.0998    2.7659   -0.5686 N   0  0  0  0  0  0  0  0  0  0  0  0
   -9.2234    2.1752   -1.2419 C   0  0  0  0  0  0  0  0  0  0  0  0
   -9.9208    1.1071   -0.6559 C   0  0  0  0  0  0  0  0  0  0  0  0
  -10.9986    0.5015   -1.3187 C   0  0  0  0  0  0  0  0  0  0  0  0
  -11.7208   -0.6491   -0.6741 C   0  0  0  0  0  0  0  0  0  0  0  0
  -11.3548    0.9496   -2.6038 C   0  0  0  0  0  0  0  0  0  0  0  0
  -12.6690    0.2027   -3.5056 Cl  0  0  0  0  0  0  0  0  0  0  0  0
  -10.6501    2.0006   -3.1993 C   0  0  0  0  0  0  0  0  0  0  0  0
   -9.5793    2.6191   -2.5270 C   0  0  0  0  0  0  0  0  0  0  0  0
   -8.8553    3.6784   -3.0988 O   0  0  0  0  0  0  0  0  0  0  0  0
   -9.0999    4.2174   -4.3938 C   0  0  0  0  0  0  0  0  0  0  0  0
   -8.9092    3.7859    4.9795 N   0  0  0  0  0  0  0  0  0  0  0  0
  -10.1059    4.5216    4.9903 N   0  0  0  0  0  0  0  0  0  0  0  0
  1  3  4  0
  1 14  4  0
  1  2  1  0
  3  4  4  0
  4  5  4  0
  5  6  4  0
  5 22  1  0
  6  7  1  0
  6 14  4  0
  7  8  1  0
  8  9  4  0
  8 12  4  0
  9 10  4  0
 10 11  4  0
 11 12  4  0
 12 13  1  0
 13 14  1  0
 13 15  1  6
 15 16  4  0
 15 20  4  0
 16 17  4  0
 17 18  4  0
 17 21  1  0
 18 19  4  0
 19 20  4  0
 23 24  4  0
 24 25  4  0
 25 26  1  0
 26 27  1  0
 27 28  1  0
 28 29  2  0
 28 30  1  0
 30 31  1  0
 31 32  4  0
 32 33  4  0
 33 34  1  0
 33 35  4  0
 35 36  1  0
 35 37  4  0
 37 38  4  0
 38 39  1  0
 39 40  1  0
 25 41  4  0
 41 42  1  0
 38 31  4  0
  2 23  4  0
  2 41  4  0
M  END
$$$$

     RDKit          3D

 29 33  0  0  0  0  0  0  0  0999 V2000
   -7.6410    4.9930    6.8080 C   0  0  0  0  0  0  0  0  0  1  0  0
   -7.7310    4.0530    5.7140 C   0  0  0  0  0  0  0  0  0  2  0  0
   -6.4520    5.6300    6.8680 N   0  0  0  0  0  0  0  0  0  0  0  0
   -6.2260    6.5240    7.8670 N   0  0  0  0  0  0  0  0  0  0  0  0
   -7.1930    6.7500    8.7820 C   0  0  0  0  0  0  0  0  0  0  0  0
   -8.4240    6.1170    8.7580 C   0  0  0  0  0  0  0  0  0  0  0  0
   -9.3950    6.3570    9.7450 N   0  0  0  0  0  0  0  0  0  0  0  0
  -10.5620    5.6840    9.7600 C   0  0  0  0  0  0  0  0  0  0  0  0
  -11.5770    5.6820   10.5960 N   0  0  0  0  0  0  0  0  0  0  0  0
  -12.4690    4.7490   10.1080 N   0  0  0  0  0  0  0  0  0  0  0  0
  -12.0160    4.1880    8.9920 N   0  0  0  0  0  0  0  0  0  0  0  0
  -10.8400    4.7900    8.7610 N   0  0  0  0  0  0  0  0  0  0  0  0
   -9.9950    4.4790    7.6090 C   0  0  0  0  0  0  0  0  0  0  0  0
   -8.6630    5.2070    7.7200 C   0  0  0  0  0  0  0  0  0  0  0  0
  -10.7490    4.8610    6.3730 C   0  0  0  0  0  0  0  0  0  0  0  0
  -11.0350    6.2020    6.1170 C   0  0  0  0  0  0  0  0  0  0  0  0
  -11.7370    6.5580    4.9650 C   0  0  0  0  0  0  0  0  0  0  0  0
  -12.1550    5.5730    4.0710 C   0  0  0  0  0  0  0  0  0  0  0  0
  -11.8700    4.2310    4.3270 C   0  0  0  0  0  0  0  0  0  0  0  0
  -11.1660    3.8760    5.4790 C   0  0  0  0  0  0  0  0  0  0  0  0
  -12.0160    7.8660    4.7150 O   0  0  0  0  0  0  0  0  0  0  0  0
   -6.8990    7.6510    9.7710 O   0  0  0  0  0  0  0  0  0  0  0  0
   -7.0453    2.8659    5.4637 C   0  0  0  0  0  0  0  0  0  0  0  0
   -7.6346    2.2141    4.3954 C   0  0  0  0  0  0  0  0  0  0  0  0
   -7.1520    0.9198    3.8173 C   0  0  0  0  0  0  0  0  0  0  0  0
   -8.7380    2.8820    3.9862 N   0  0  0  0  0  0  0  0  0  0  0  0
   -9.6058    2.5278    2.8627 C   0  0  0  0  0  0  0  0  0  0  0  0
   -8.8286    3.9916    4.7548 C   0  0  0  0  0  0  0  0  0  0  0  0
   -9.8949    5.0386    4.6200 C   0  0  0  0  0  0  0  0  0  0  0  0
  1  3  4  0
  1 14  4  0
  1  2  1  0
  3  4  4  0
  4  5  4  0
  5  6  4  0
  5 22  1  0
  6  7  1  0
  6 14  4  0
  7  8  1  0
  8  9  4  0
  8 12  4  0
  9 10  4  0
 10 11  4  0
 11 12  4  0
 12 13  1  0
 13 14  1  0
 13 15  1  6
 15 16  4  0
 15 20  4  0
 16 17  4  0
 17 18  4  0
 17 21  1  0
 18 19  4  0
 19 20  4  0
 23 24  4  0
 24 25  1  0
 24 26  4  0
 26 27  1  0
 26 28  4  0
 28 29  1  0
  2 23  4  0
  2 28  4  0
M  END
$$$$

     RDKit          3D

 31 35  0  0  0  0  0  0  0  0999 V2000
   -7.6410    4.9930    6.8080 C   0  0  0  0  0  0  0  0  0  1  0  0
   -7.7310    4.0530    5.7140 C   0  0  0  0  0  0  0  0  0  2  0  0
   -6.4520    5.6300    6.8680 N   0  0  0  0  0  0  0  0  0  0  0  0
   -6.2260    6.5240    7.8670 N   0  0  0  0  0  0  0  0  0  0  0  0
   -7.1930    6.7500    8.7820 C   0  0  0  0  0  0  0  0  0  0  0  0
   -8.4240    6.1170    8.7580 C   0  0  0  0  0  0  0  0  0  0  0  0
   -9.3950    6.3570    9.7450 N   0  0  0  0  0  0  0  0  0  0  0  0
  -10.5620    5.6840    9.7600 C   0  0  0  0  0  0  0  0  0  0  0  0
  -11.5770    5.6820   10.5960 N   0  0  0  0  0  0  0  0  0  0  0  0
  -12.4690    4.7490   10.1080 N   0  0  0  0  0  0  0  0  0  0  0  0
  -12.0160    4.1880    8.9920 N   0  0  0  0  0  0  0  0  0  0  0  0
  -10.8400    4.7900    8.7610 N   0  0  0  0  0  0  0  0  0  0  0  0
   -9.9950    4.4790    7.6090 C   0  0  0  0  0  0  0  0  0  0  0  0
   -8.6630    5.2070    7.7200 C   0  0  0  0  0  0  0  0  0  0  0  0
  -10.7490    4.8610    6.3730 C   0  0  0  0  0  0  0  0  0  0  0  0
  -11.0350    6.2020    6.1170 C   0  0  0  0  0  0  0  0  0  0  0  0
  -11.7370    6.5580    4.9650 C   0  0  0  0  0  0  0  0  0  0  0  0
  -12.1550    5.5730    4.0710 C   0  0  0  0  0  0  0  0  0  0  0  0
  -11.8700    4.2310    4.3270 C   0  0  0  0  0  0  0  0  0  0  0  0
  -11.1660    3.8760    5.4790 C   0  0  0  0  0  0  0  0  0  0  0  0
  -12.0160    7.8660    4.7150 O   0  0  0  0  0  0  0  0  0  0  0  0
   -6.8990    7.6510    9.7710 O   0  0  0  0  0  0  0  0  0  0  0  0
   -8.9051    4.0731    4.8310 C   0  0  0  0  0  0  0  0  0  0  0  0
   -9.8276    5.0585    4.9762 F   0  0  0  0  0  0  0  0  0  0  0  0
   -9.0623    3.1451    3.7976 C   0  0  0  0  0  0  0  0  0  0  0  0
   -8.1182    2.1331    3.5970 C   0  0  0  0  0  0  0  0  0  0  0  0
   -8.3249    1.2280    2.5453 O   0  0  0  0  0  0  0  0  0  0  0  0
   -7.4480    0.1523    2.2263 C   0  0  0  0  0  0  0  0  0  0  0  0
   -7.0019    2.0576    4.4497 C   0  0  0  0  0  0  0  0  0  0  0  0
   -6.8380    2.9834    5.4848 C   0  0  0  0  0  0  0  0  0  0  0  0
   -5.7652    2.8659    6.3084 F   0  0  0  0  0  0  0  0  0  0  0  0
  1  3  4  0
  1 14  4  0
  1  2  1  0
  3  4  4  0
  4  5  4  0
  5  6  4  0
  5 22  1  0
  6  7  1  0
  6 14  4  0
  7  8  1  0
  8  9  4  0
  8 12  4  0
  9 10  4  0
 10 11  4  0
 11 12  4  0
 12 13  1  0
 13 14  1  0
 13 15  1  6
 15 16  4  0
 15 20  4  0
 16 17  4  0
 17 18  4  0
 17 21  1  0
 18 19  4  0
 19 20  4  0
 23 24  1  0
 23 25  4  0
 25 26  4  0
 26 27  1  0
 27 28  1  0
 26 29  4  0
 29 30  4  0
 30 31  1  0
  2 23  4  0
  2 30  4  0
M  END
$$$$

     RDKit          3D

 31 35  0  0  0  0  0  0  0  0999 V2000
   -7.6410    4.9930    6.8080 C   0  0  0  0  0  0  0  0  0  1  0  0
   -7.7310    4.0530    5.7140 C   0  0  0  0  0  0  0  0  0  2  0  0
   -6.4520    5.6300    6.8680 N   0  0  0  0  0  0  0  0  0  0  0  0
   -6.2260    6.5240    7.8670 N   0  0  0  0  0  0  0  0  0  0  0  0
   -7.1930    6.7500    8.7820 C   0  0  0  0  0  0  0  0  0  0  0  0
   -8.4240    6.1170    8.7580 C   0  0  0  0  0  0  0  0  0  0  0  0
   -9.3950    6.3570    9.7450 N   0  0  0  0  0  0  0  0  0  0  0  0
  -10.5620    5.6840    9.7600 C   0  0  0  0  0  0  0  0  0  0  0  0
  -11.5770    5.6820   10.5960 N   0  0  0  0  0  0  0  0  0  0  0  0
  -12.4690    4.7490   10.1080 N   0  0  0  0  0  0  0  0  0  0  0  0
  -12.0160    4.1880    8.9920 N   0  0  0  0  0  0  0  0  0  0  0  0
  -10.8400    4.7900    8.7610 N   0  0  0  0  0  0  0  0  0  0  0  0
   -9.9950    4.4790    7.6090 C   0  0  0  0  0  0  0  0  0  0  0  0
   -8.6630    5.2070    7.7200 C   0  0  0  0  0  0  0  0  0  0  0  0
  -10.7490    4.8610    6.3730 C   0  0  0  0  0  0  0  0  0  0  0  0
  -11.0350    6.2020    6.1170 C   0  0  0  0  0  0  0  0  0  0  0  0
  -11.7370    6.5580    4.9650 C   0  0  0  0  0  0  0  0  0  0  0  0
  -12.1550    5.5730    4.0710 C   0  0  0  0  0  0  0  0  0  0  0  0
  -11.8700    4.2310    4.3270 C   0  0  0  0  0  0  0  0  0  0  0  0
  -11.1660    3.8760    5.4790 C   0  0  0  0  0  0  0  0  0  0  0  0
  -12.0160    7.8660    4.7150 O   0  0  0  0  0  0  0  0  0  0  0  0
   -6.8990    7.6510    9.7710 O   0  0  0  0  0  0  0  0  0  0  0  0
   -6.8374    2.9838    5.4849 C   0  0  0  0  0  0  0  0  0  0  0  0
   -5.7647    2.8668    6.3087 F   0  0  0  0  0  0  0  0  0  0  0  0
   -7.0008    2.0579    4.4499 C   0  0  0  0  0  0  0  0  0  0  0  0
   -8.1171    2.1328    3.5970 C   0  0  0  0  0  0  0  0  0  0  0  0
   -8.3233    1.2275    2.5455 O   0  0  0  0  0  0  0  0  0  0  0  0
   -7.4460    0.1522    2.2266 C   0  0  0  0  0  0  0  0  0  0  0  0
   -9.0617    3.1443    3.7976 C   0  0  0  0  0  0  0  0  0  0  0  0
   -8.9050    4.0725    4.8310 C   0  0  0  0  0  0  0  0  0  0  0  0
   -9.8279    5.0573    4.9764 F   0  0  0  0  0  0  0  0  0  0  0  0
  1  3  4  0
  1 14  4  0
  1  2  1  0
  3  4  4  0
  4  5  4  0
  5  6  4  0
  5 22  1  0
  6  7  1  0
  6 14  4  0
  7  8  1  0
  8  9  4  0
  8 12  4  0
  9 10  4  0
 10 11  4  0
 11 12  4  0
 12 13  1  0
 13 14  1  0
 13 15  1  6
 15 16  4  0
 15 20  4  0
 16 17  4  0
 17 18  4  0
 17 21  1  0
 18 19  4  0
 19 20  4  0
 23 24  1  0
 23 25  4  0
 25 26  4  0
 26 27  1  0
 27 28  1  0
 26 29  4  0
 29 30  4  0
 30 31  1  0
  2 23  4  0
  2 30  4  0
M  END
$$$$

     RDKit          3D

 50 58  0  0  0  0  0  0  0  0999 V2000
   -7.6410    4.9930    6.8080 C   0  0  0  0  0  0  0  0  0  1  0  0
   -7.7310    4.0530    5.7140 C   0  0  0  0  0  0  0  0  0  2  0  0
   -6.4520    5.6300    6.8680 N   0  0  0  0  0  0  0  0  0  0  0  0
   -6.2260    6.5240    7.8670 N   0  0  0  0  0  0  0  0  0  0  0  0
   -7.1930    6.7500    8.7820 C   0  0  0  0  0  0  0  0  0  0  0  0
   -8.4240    6.1170    8.7580 C   0  0  0  0  0  0  0  0  0  0  0  0
   -9.3950    6.3570    9.7450 N   0  0  0  0  0  0  0  0  0  0  0  0
  -10.5620    5.6840    9.7600 C   0  0  0  0  0  0  0  0  0  0  0  0
  -11.5770    5.6820   10.5960 N   0  0  0  0  0  0  0  0  0  0  0  0
  -12.4690    4.7490   10.1080 N   0  0  0  0  0  0  0  0  0  0  0  0
  -12.0160    4.1880    8.9920 N   0  0  0  0  0  0  0  0  0  0  0  0
  -10.8400    4.7900    8.7610 N   0  0  0  0  0  0  0  0  0  0  0  0
   -9.9950    4.4790    7.6090 C   0  0  0  0  0  0  0  0  0  0  0  0
   -8.6630    5.2070    7.7200 C   0  0  0  0  0  0  0  0  0  0  0  0
  -10.7490    4.8610    6.3730 C   0  0  0  0  0  0  0  0  0  0  0  0
  -11.0350    6.2020    6.1170 C   0  0  0  0  0  0  0  0  0  0  0  0
  -11.7370    6.5580    4.9650 C   0  0  0  0  0  0  0  0  0  0  0  0
  -12.1550    5.5730    4.0710 C   0  0  0  0  0  0  0  0  0  0  0  0
  -11.8700    4.2310    4.3270 C   0  0  0  0  0  0  0  0  0  0  0  0
  -11.1660    3.8760    5.4790 C   0  0  0  0  0  0  0  0  0  0  0  0
  -12.0160    7.8660    4.7150 O   0  0  0  0  0  0  0  0  0  0  0  0
   -6.8990    7.6510    9.7710 O   0  0  0  0  0  0  0  0  0  0  0  0
   -6.9989    2.8485    5.6995 C   0  0  0  0  0  0  0  0  0  0  0  0
   -7.1424    1.9121    4.7299 N   0  0  0  0  0  0  0  0  0  0  0  0
   -8.0392    2.0718    3.7227 C   0  0  0  0  0  0  0  0  0  1  0  0
   -8.1884    1.0253    2.6828 C   0  0  0  0  0  0  0  0  0  2  0  0
   -7.5320   -0.2118    2.8128 C   0  0  0  0  0  0  0  0  0  0  0  0
   -7.7055   -1.1939    1.8350 C   0  0  0  0  0  0  0  0  0  0  0  0
   -8.5050   -0.9568    0.7621 N   0  0  0  0  0  0  0  0  0  0  0  0
   -9.1468    0.2295    0.6018 C   0  0  0  0  0  0  0  0  0  0  0  0
   -8.9985    1.2412    1.5534 C   0  0  0  0  0  0  0  0  0  0  0  0
   -8.8018    3.1970    3.6843 N   0  0  0  0  0  0  0  0  0  0  0  0
   -8.7133    4.1716    4.6311 C   0  0  0  0  0  0  0  0  0  0  0  0
   -9.5323    5.4457    4.4588 C   0  0  0  0  0  0  0  0  0  0  0  0
   -8.8886    6.3986    3.4333 C   0  0  0  0  0  0  0  0  0  0  0  0
   -9.1249    5.9426    1.9931 C   0  0  0  0  0  0  0  0  0  0  0  0
  -10.5604    5.7458    1.7639 N   0  0  0  0  0  0  0  0  0  0  0  0
  -11.2263    6.4279    0.6795 C   0  0  0  0  0  0  0  0  0  0  0  0
  -10.7785    7.5335    0.2692 O   0  0  0  0  0  0  0  0  0  0  0  0
  -12.4736    5.8723    0.0401 C   0  0  0  0  0  0  0  0  0  0  0  0
  -13.7607    6.4948    0.6551 C   0  0  0  0  0  0  0  0  0  0  0  0
  -14.3962    7.1503   -0.5180 C   0  0  0  0  0  0  0  0  0  0  0  0
  -15.5807    7.8862   -0.5733 C   0  0  0  0  0  0  0  0  0  0  0  0
  -15.9794    8.4181   -1.8114 C   0  0  0  0  0  0  0  0  0  0  0  0
  -15.1920    8.2080   -2.9607 C   0  0  0  0  0  0  0  0  0  0  0  0
  -14.0021    7.4660   -2.8752 C   0  0  0  0  0  0  0  0  0  0  0  0
  -13.6336    6.9520   -1.6327 C   0  0  0  0  0  0  0  0  0  0  0  0
  -12.5067    6.2127   -1.3484 O   0  0  0  0  0  0  0  0  0  0  0  0
  -11.2704    4.8147    2.6517 C   0  0  0  0  0  0  0  0  0  0  0  0
  -11.0174    5.1718    4.1254 C   0  0  0  0  0  0  0  0  0  0  0  0
  1  3  4  0
  1 14  4  0
  1  2  1  0
  3  4  4  0
  4  5  4  0
  5  6  4  0
  5 22  1  0
  6  7  1  0
  6 14  4  0
  7  8  1  0
  8  9  4  0
  8 12  4  0
  9 10  4  0
 10 11  4  0
 11 12  4  0
 12 13  1  0
 13 14  1  0
 13 15  1  6
 15 16  4  0
 15 20  4  0
 16 17  4  0
 17 18  4  0
 17 21  1  0
 18 19  4  0
 19 20  4  0
 23 24  4  0
 24 25  4  0
 25 26  1  0
 26 27  4  0
 27 28  4  0
 28 29  4  0
 29 30  4  0
 30 31  4  0
 25 32  4  0
 32 33  4  0
 33 34  1  0
 34 35  1  0
 35 36  1  0
 36 37  1  0
 37 38  1  0
 38 39  2  0
 38 40  1  0
 40 41  1  0
 41 42  1  0
 42 43  4  0
 43 44  4  0
 44 45  4  0
 45 46  4  0
 46 47  4  0
 47 48  1  0
 37 49  1  0
 49 50  1  0
 50 34  1  0
 31 26  4  0
 48 40  1  0
 47 42  4  0
  2 23  4  0
  2 33  4  0
M  END
$$$$

     RDKit          3D

 43 48  0  0  0  0  0  0  0  0999 V2000
   -7.6410    4.9930    6.8080 C   0  0  0  0  0  0  0  0  0  1  0  0
   -7.7310    4.0530    5.7140 C   0  0  0  0  0  0  0  0  0  2  0  0
   -6.4520    5.6300    6.8680 N   0  0  0  0  0  0  0  0  0  0  0  0
   -6.2260    6.5240    7.8670 N   0  0  0  0  0  0  0  0  0  0  0  0
   -7.1930    6.7500    8.7820 C   0  0  0  0  0  0  0  0  0  0  0  0
   -8.4240    6.1170    8.7580 C   0  0  0  0  0  0  0  0  0  0  0  0
   -9.3950    6.3570    9.7450 N   0  0  0  0  0  0  0  0  0  0  0  0
  -10.5620    5.6840    9.7600 C   0  0  0  0  0  0  0  0  0  0  0  0
  -11.5770    5.6820   10.5960 N   0  0  0  0  0  0  0  0  0  0  0  0
  -12.4690    4.7490   10.1080 N   0  0  0  0  0  0  0  0  0  0  0  0
  -12.0160    4.1880    8.9920 N   0  0  0  0  0  0  0  0  0  0  0  0
  -10.8400    4.7900    8.7610 N   0  0  0  0  0  0  0  0  0  0  0  0
   -9.9950    4.4790    7.6090 C   0  0  0  0  0  0  0  0  0  0  0  0
   -8.6630    5.2070    7.7200 C   0  0  0  0  0  0  0  0  0  0  0  0
  -10.7490    4.8610    6.3730 C   0  0  0  0  0  0  0  0  0  0  0  0
  -11.0350    6.2020    6.1170 C   0  0  0  0  0  0  0  0  0  0  0  0
  -11.7370    6.5580    4.9650 C   0  0  0  0  0  0  0  0  0  0  0  0
  -12.1550    5.5730    4.0710 C   0  0  0  0  0  0  0  0  0  0  0  0
  -11.8700    4.2310    4.3270 C   0  0  0  0  0  0  0  0  0  0  0  0
  -11.1660    3.8760    5.4790 C   0  0  0  0  0  0  0  0  0  0  0  0
  -12.0160    7.8660    4.7150 O   0  0  0  0  0  0  0  0  0  0  0  0
   -6.8990    7.6510    9.7710 O   0  0  0  0  0  0  0  0  0  0  0  0
   -6.8596    2.9697    5.4725 C   0  0  0  0  0  0  0  0  0  0  0  0
   -7.2067    2.1083    4.4418 C   0  0  0  0  0  0  0  0  0  0  0  0
   -8.6608    2.6330    3.7874 S   0  0  0  0  0  0  0  0  0  0  0  0
   -8.8711    3.9597    4.8002 C   0  0  0  0  0  0  0  0  0  0  0  0
   -9.9770    4.9225    4.6595 C   0  0  0  0  0  0  0  0  0  0  0  0
   -9.9366    6.0369    5.2488 O   0  0  0  0  0  0  0  0  0  0  0  0
  -11.0590    4.6003    3.8356 O   0  0  0  0  0  0  0  0  0  0  0  0
  -12.1575    5.4813    3.6285 C   0  0  0  0  0  0  0  0  0  0  0  0
  -13.1591    4.8199    2.7383 C   0  0  0  0  0  0  0  0  0  0  0  0
  -13.4152    5.3211    1.6100 O   0  0  0  0  0  0  0  0  0  0  0  0
  -13.8205    3.6230    3.1744 N   0  0  0  0  0  0  0  0  0  0  0  0
  -14.7375    2.8596    2.3213 C   0  0  0  0  0  0  0  0  0  0  0  0
  -14.0219    1.6003    1.8084 C   0  0  0  0  0  0  0  0  0  0  0  0
  -14.9013    0.8016    0.8258 C   0  0  0  0  0  0  0  0  0  0  0  0
  -16.4117    0.9657    1.0821 C   0  0  0  0  0  0  0  0  0  0  0  0
  -16.7126    1.2008    2.5669 C   0  0  0  0  0  0  0  0  0  0  0  0
  -16.0286    2.4877    3.1135 C   0  0  0  0  0  0  0  0  0  0  0  0
  -17.0145    3.6751    3.1628 C   0  0  0  0  0  0  0  0  0  0  0  0
  -18.0738    3.3748    4.0012 F   0  0  0  0  0  0  0  0  0  0  0  0
  -16.3826    4.8050    3.6528 F   0  0  0  0  0  0  0  0  0  0  0  0
  -17.5081    3.9514    1.8998 F   0  0  0  0  0  0  0  0  0  0  0  0
  1  3  4  0
  1 14  4  0
  1  2  1  0
  3  4  4  0
  4  5  4  0
  5  6  4  0
  5 22  1  0
  6  7  1  0
  6 14  4  0
  7  8  1  0
  8  9  4  0
  8 12  4  0
  9 10  4  0
 10 11  4  0
 11 12  4  0
 12 13  1  0
 13 14  1  0
 13 15  1  6
 15 16  4  0
 15 20  4  0
 16 17  4  0
 17 18  4  0
 17 21  1  0
 18 19  4  0
 19 20  4  0
 23 24  4  0
 24 25  4  0
 25 26  4  0
 26 27  1  0
 27 28  2  0
 27 29  1  0
 29 30  1  0
 30 31  1  0
 31 32  2  0
 31 33  1  0
 33 34  1  0
 34 35  1  0
 35 36  1  0
 36 37  1  0
 37 38  1  0
 38 39  1  0
 39 40  1  0
 40 41  1  0
 40 42  1  0
 40 43  1  0
 39 34  1  0
  2 23  4  0
  2 26  4  0
M  END
$$$$

     RDKit          3D

 43 48  0  0  0  0  0  0  0  0999 V2000
   -7.6410    4.9930    6.8080 C   0  0  0  0  0  0  0  0  0  1  0  0
   -7.7310    4.0530    5.7140 C   0  0  0  0  0  0  0  0  0  2  0  0
   -6.4520    5.6300    6.8680 N   0  0  0  0  0  0  0  0  0  0  0  0
   -6.2260    6.5240    7.8670 N   0  0  0  0  0  0  0  0  0  0  0  0
   -7.1930    6.7500    8.7820 C   0  0  0  0  0  0  0  0  0  0  0  0
   -8.4240    6.1170    8.7580 C   0  0  0  0  0  0  0  0  0  0  0  0
   -9.3950    6.3570    9.7450 N   0  0  0  0  0  0  0  0  0  0  0  0
  -10.5620    5.6840    9.7600 C   0  0  0  0  0  0  0  0  0  0  0  0
  -11.5770    5.6820   10.5960 N   0  0  0  0  0  0  0  0  0  0  0  0
  -12.4690    4.7490   10.1080 N   0  0  0  0  0  0  0  0  0  0  0  0
  -12.0160    4.1880    8.9920 N   0  0  0  0  0  0  0  0  0  0  0  0
  -10.8400    4.7900    8.7610 N   0  0  0  0  0  0  0  0  0  0  0  0
   -9.9950    4.4790    7.6090 C   0  0  0  0  0  0  0  0  0  0  0  0
   -8.6630    5.2070    7.7200 C   0  0  0  0  0  0  0  0  0  0  0  0
  -10.7490    4.8610    6.3730 C   0  0  0  0  0  0  0  0  0  0  0  0
  -11.0350    6.2020    6.1170 C   0  0  0  0  0  0  0  0  0  0  0  0
  -11.7370    6.5580    4.9650 C   0  0  0  0  0  0  0  0  0  0  0  0
  -12.1550    5.5730    4.0710 C   0  0  0  0  0  0  0  0  0  0  0  0
  -11.8700    4.2310    4.3270 C   0  0  0  0  0  0  0  0  0  0  0  0
  -11.1660    3.8760    5.4790 C   0  0  0  0  0  0  0  0  0  0  0  0
  -12.0160    7.8660    4.7150 O   0  0  0  0  0  0  0  0  0  0  0  0
   -6.8990    7.6510    9.7710 O   0  0  0  0  0  0  0  0  0  0  0  0
   -6.8481    2.9824    5.4634 C   0  0  0  0  0  0  0  0  0  0  0  0
   -7.1906    2.1192    4.4328 C   0  0  0  0  0  0  0  0  0  0  0  0
   -8.6549    2.6276    3.7887 S   0  0  0  0  0  0  0  0  0  0  0  0
   -8.8759    3.9490    4.8060 C   0  0  0  0  0  0  0  0  0  0  0  0
   -9.9965    4.8965    4.6738 C   0  0  0  0  0  0  0  0  0  0  0  0
   -9.9799    6.0004    5.2827 O   0  0  0  0  0  0  0  0  0  0  0  0
  -11.0671    4.5716    3.8362 O   0  0  0  0  0  0  0  0  0  0  0  0
  -12.2062    5.4100    3.6829 C   0  0  0  0  0  0  0  0  0  0  0  0
  -13.1361    4.7969    2.6858 C   0  0  0  0  0  0  0  0  0  0  0  0
  -12.7703    4.7055    1.4835 O   0  0  0  0  0  0  0  0  0  0  0  0
  -14.4219    4.3081    3.0962 N   0  0  0  0  0  0  0  0  0  0  0  0
  -15.3168    3.5582    2.2082 C   0  0  0  0  0  0  0  0  0  0  0  0
  -16.6613    4.3177    2.0859 C   0  0  0  0  0  0  0  0  0  0  0  0
  -17.8651    3.4059    1.7818 C   0  0  0  0  0  0  0  0  0  0  0  0
  -17.4506    2.1735    0.9786 C   0  0  0  0  0  0  0  0  0  0  0  0
  -16.4317    1.3080    1.7457 C   0  0  0  0  0  0  0  0  0  0  0  0
  -15.5329    2.1115    2.7272 C   0  0  0  0  0  0  0  0  0  0  0  0
  -14.2061    1.3594    2.9814 C   0  0  0  0  0  0  0  0  0  0  0  0
  -13.5203    1.9286    4.0390 F   0  0  0  0  0  0  0  0  0  0  0  0
  -13.4039    1.3931    1.8535 F   0  0  0  0  0  0  0  0  0  0  0  0
  -14.4650    0.0396    3.3052 F   0  0  0  0  0  0  0  0  0  0  0  0
  1  3  4  0
  1 14  4  0
  1  2  1  0
  3  4  4  0
  4  5  4  0
  5  6  4  0
  5 22  1  0
  6  7  1  0
  6 14  4  0
  7  8  1  0
  8  9  4  0
  8 12  4  0
  9 10  4  0
 10 11  4  0
 11 12  4  0
 12 13  1  0
 13 14  1  0
 13 15  1  6
 15 16  4  0
 15 20  4  0
 16 17  4  0
 17 18  4  0
 17 21  1  0
 18 19  4  0
 19 20  4  0
 23 24  4  0
 24 25  4  0
 25 26  4  0
 26 27  1  0
 27 28  2  0
 27 29  1  0
 29 30  1  0
 30 31  1  0
 31 32  2  0
 31 33  1  0
 33 34  1  0
 34 35  1  0
 35 36  1  0
 36 37  1  0
 37 38  1  0
 38 39  1  0
 39 40  1  0
 40 41  1  0
 40 42  1  0
 40 43  1  0
 39 34  1  0
  2 23  4  0
  2 26  4  0
M  END
$$$$

     RDKit          3D

 43 48  0  0  0  0  0  0  0  0999 V2000
   -7.6410    4.9930    6.8080 C   0  0  0  0  0  0  0  0  0  1  0  0
   -7.7310    4.0530    5.7140 C   0  0  0  0  0  0  0  0  0  2  0  0
   -6.4520    5.6300    6.8680 N   0  0  0  0  0  0  0  0  0  0  0  0
   -6.2260    6.5240    7.8670 N   0  0  0  0  0  0  0  0  0  0  0  0
   -7.1930    6.7500    8.7820 C   0  0  0  0  0  0  0  0  0  0  0  0
   -8.4240    6.1170    8.7580 C   0  0  0  0  0  0  0  0  0  0  0  0
   -9.3950    6.3570    9.7450 N   0  0  0  0  0  0  0  0  0  0  0  0
  -10.5620    5.6840    9.7600 C   0  0  0  0  0  0  0  0  0  0  0  0
  -11.5770    5.6820   10.5960 N   0  0  0  0  0  0  0  0  0  0  0  0
  -12.4690    4.7490   10.1080 N   0  0  0  0  0  0  0  0  0  0  0  0
  -12.0160    4.1880    8.9920 N   0  0  0  0  0  0  0  0  0  0  0  0
  -10.8400    4.7900    8.7610 N   0  0  0  0  0  0  0  0  0  0  0  0
   -9.9950    4.4790    7.6090 C   0  0  0  0  0  0  0  0  0  0  0  0
   -8.6630    5.2070    7.7200 C   0  0  0  0  0  0  0  0  0  0  0  0
  -10.7490    4.8610    6.3730 C   0  0  0  0  0  0  0  0  0  0  0  0
  -11.0350    6.2020    6.1170 C   0  0  0  0  0  0  0  0  0  0  0  0
  -11.7370    6.5580    4.9650 C   0  0  0  0  0  0  0  0  0  0  0  0
  -12.1550    5.5730    4.0710 C   0  0  0  0  0  0  0  0  0  0  0  0
  -11.8700    4.2310    4.3270 C   0  0  0  0  0  0  0  0  0  0  0  0
  -11.1660    3.8760    5.4790 C   0  0  0  0  0  0  0  0  0  0  0  0
  -12.0160    7.8660    4.7150 O   0  0  0  0  0  0  0  0  0  0  0  0
   -6.8990    7.6510    9.7710 O   0  0  0  0  0  0  0  0  0  0  0  0
   -6.8013    3.1646    5.3059 N   0  0  0  0  0  0  0  0  0  0  0  0
   -7.2899    2.4052    4.3360 N   0  0  0  0  0  0  0  0  0  0  0  0
   -8.5607    2.7988    4.1346 C   0  0  0  0  0  0  0  0  0  0  0  0
   -9.6511    2.0360    2.9316 S   0  0  0  0  0  0  0  0  0  0  0  0
  -10.3421    0.8612    4.1399 C   0  0  0  0  0  0  0  0  0  0  0  0
  -11.3162   -0.0450    3.4567 C   0  0  0  0  0  0  0  0  0  0  0  0
  -10.8913   -0.8732    2.6061 O   0  0  0  0  0  0  0  0  0  0  0  0
  -12.7113    0.0015    3.7949 N   0  0  0  0  0  0  0  0  0  0  0  0
  -13.7151   -0.7603    3.1020 C   0  0  0  0  0  0  0  0  0  0  0  0
  -13.7039   -0.8411    1.6977 C   0  0  0  0  0  0  0  0  0  0  0  0
  -14.6828   -1.5746    1.0219 C   0  0  0  0  0  0  0  0  0  0  0  0
  -15.6870   -2.2280    1.7381 C   0  0  0  0  0  0  0  0  0  0  0  0
  -15.7182   -2.1448    3.1316 C   0  0  0  0  0  0  0  0  0  0  0  0
  -14.7422   -1.4107    3.8191 C   0  0  0  0  0  0  0  0  0  0  0  0
  -14.8201   -1.3424    5.6155 S   0  0  0  0  0  0  0  0  0  0  0  0
  -13.6917   -2.7555    5.8417 C   0  0  0  0  0  0  0  0  0  0  0  0
  -13.5964   -3.0926    7.2964 C   0  0  0  0  0  0  0  0  0  0  0  0
  -12.3664   -2.9267    8.0033 N   0  0  0  0  0  0  0  0  0  0  0  0
  -14.6101   -3.5328    7.9026 O   0  0  0  0  0  0  0  0  0  0  0  0
   -8.9025    3.8138    4.9523 N   0  0  0  0  0  0  0  0  0  0  0  0
  -10.1844    4.5140    5.0145 C   0  0  0  0  0  0  0  0  0  0  0  0
  1  3  4  0
  1 14  4  0
  1  2  1  0
  3  4  4  0
  4  5  4  0
  5  6  4  0
  5 22  1  0
  6  7  1  0
  6 14  4  0
  7  8  1  0
  8  9  4  0
  8 12  4  0
  9 10  4  0
 10 11  4  0
 11 12  4  0
 12 13  1  0
 13 14  1  0
 13 15  1  6
 15 16  4  0
 15 20  4  0
 16 17  4  0
 17 18  4  0
 17 21  1  0
 18 19  4  0
 19 20  4  0
 23 24  4  0
 24 25  4  0
 25 26  1  0
 26 27  1  0
 27 28  1  0
 28 29  2  0
 28 30  1  0
 30 31  1  0
 31 32  4  0
 32 33  4  0
 33 34  4  0
 34 35  4  0
 35 36  4  0
 36 37  1  0
 37 38  1  0
 38 39  1  0
 39 40  1  0
 39 41  2  0
 25 42  4  0
 42 43  1  0
 36 31  4  0
  2 23  4  0
  2 42  4  0
M  END
$$$$

     RDKit          3D

 43 48  0  0  0  0  0  0  0  0999 V2000
   -7.6410    4.9930    6.8080 C   0  0  0  0  0  0  0  0  0  1  0  0
   -7.7310    4.0530    5.7140 C   0  0  0  0  0  0  0  0  0  2  0  0
   -6.4520    5.6300    6.8680 N   0  0  0  0  0  0  0  0  0  0  0  0
   -6.2260    6.5240    7.8670 N   0  0  0  0  0  0  0  0  0  0  0  0
   -7.1930    6.7500    8.7820 C   0  0  0  0  0  0  0  0  0  0  0  0
   -8.4240    6.1170    8.7580 C   0  0  0  0  0  0  0  0  0  0  0  0
   -9.3950    6.3570    9.7450 N   0  0  0  0  0  0  0  0  0  0  0  0
  -10.5620    5.6840    9.7600 C   0  0  0  0  0  0  0  0  0  0  0  0
  -11.5770    5.6820   10.5960 N   0  0  0  0  0  0  0  0  0  0  0  0
  -12.4690    4.7490   10.1080 N   0  0  0  0  0  0  0  0  0  0  0  0
  -12.0160    4.1880    8.9920 N   0  0  0  0  0  0  0  0  0  0  0  0
  -10.8400    4.7900    8.7610 N   0  0  0  0  0  0  0  0  0  0  0  0
   -9.9950    4.4790    7.6090 C   0  0  0  0  0  0  0  0  0  0  0  0
   -8.6630    5.2070    7.7200 C   0  0  0  0  0  0  0  0  0  0  0  0
  -10.7490    4.8610    6.3730 C   0  0  0  0  0  0  0  0  0  0  0  0
  -11.0350    6.2020    6.1170 C   0  0  0  0  0  0  0  0  0  0  0  0
  -11.7370    6.5580    4.9650 C   0  0  0  0  0  0  0  0  0  0  0  0
  -12.1550    5.5730    4.0710 C   0  0  0  0  0  0  0  0  0  0  0  0
  -11.8700    4.2310    4.3270 C   0  0  0  0  0  0  0  0  0  0  0  0
  -11.1660    3.8760    5.4790 C   0  0  0  0  0  0  0  0  0  0  0  0
  -12.0160    7.8660    4.7150 O   0  0  0  0  0  0  0  0  0  0  0  0
   -6.8990    7.6510    9.7710 O   0  0  0  0  0  0  0  0  0  0  0  0
   -6.7896    3.1865    5.2878 N   0  0  0  0  0  0  0  0  0  0  0  0
   -7.2663    2.4440    4.2996 N   0  0  0  0  0  0  0  0  0  0  0  0
   -8.5410    2.8270    4.1038 C   0  0  0  0  0  0  0  0  0  0  0  0
   -9.6085    2.0981    2.8596 S   0  0  0  0  0  0  0  0  0  0  0  0
   -9.0770    3.2579    1.5588 C   0  0  0  0  0  0  0  0  0  0  0  0
   -9.8351    2.9812    0.2989 C   0  0  0  0  0  0  0  0  0  0  0  0
  -11.0829    3.1621    0.2795 O   0  0  0  0  0  0  0  0  0  0  0  0
   -9.1518    2.4857   -0.8636 N   0  0  0  0  0  0  0  0  0  0  0  0
   -9.7759    2.3524   -2.1533 C   0  0  0  0  0  0  0  0  0  0  0  0
  -10.6338    3.3579   -2.6362 C   0  0  0  0  0  0  0  0  0  0  0  0
  -11.2290    3.2382   -3.8945 C   0  0  0  0  0  0  0  0  0  0  0  0
  -10.9700    2.1198   -4.6877 C   0  0  0  0  0  0  0  0  0  0  0  0
  -10.1088    1.1216   -4.2283 C   0  0  0  0  0  0  0  0  0  0  0  0
   -9.5002    1.2350   -2.9712 C   0  0  0  0  0  0  0  0  0  0  0  0
   -8.4136   -0.0871   -2.4168 S   0  0  0  0  0  0  0  0  0  0  0  0
   -6.9306    0.6399   -3.1886 C   0  0  0  0  0  0  0  0  0  0  0  0
   -5.7371   -0.2098   -2.8889 C   0  0  0  0  0  0  0  0  0  0  0  0
   -5.6536   -1.5425   -3.3936 N   0  0  0  0  0  0  0  0  0  0  0  0
   -4.7934    0.2557   -2.1961 O   0  0  0  0  0  0  0  0  0  0  0  0
   -8.8989    3.8150    4.9472 N   0  0  0  0  0  0  0  0  0  0  0  0
  -10.1874    4.5026    5.0187 C   0  0  0  0  0  0  0  0  0  0  0  0
  1  3  4  0
  1 14  4  0
  1  2  1  0
  3  4  4  0
  4  5  4  0
  5  6  4  0
  5 22  1  0
  6  7  1  0
  6 14  4  0
  7  8  1  0
  8  9  4  0
  8 12  4  0
  9 10  4  0
 10 11  4  0
 11 12  4  0
 12 13  1  0
 13 14  1  0
 13 15  1  6
 15 16  4  0
 15 20  4  0
 16 17  4  0
 17 18  4  0
 17 21  1  0
 18 19  4  0
 19 20  4  0
 23 24  4  0
 24 25  4  0
 25 26  1  0
 26 27  1  0
 27 28  1  0
 28 29  2  0
 28 30  1  0
 30 31  1  0
 31 32  4  0
 32 33  4  0
 33 34  4  0
 34 35  4  0
 35 36  4  0
 36 37  1  0
 37 38  1  0
 38 39  1  0
 39 40  1  0
 39 41  2  0
 25 42  4  0
 42 43  1  0
 36 31  4  0
  2 23  4  0
  2 42  4  0
M  END
$$$$

     RDKit          3D

 45 51  0  0  0  0  0  0  0  0999 V2000
   -7.6410    4.9930    6.8080 C   0  0  0  0  0  0  0  0  0  1  0  0
   -7.7310    4.0530    5.7140 C   0  0  0  0  0  0  0  0  0  2  0  0
   -6.4520    5.6300    6.8680 N   0  0  0  0  0  0  0  0  0  0  0  0
   -6.2260    6.5240    7.8670 N   0  0  0  0  0  0  0  0  0  0  0  0
   -7.1930    6.7500    8.7820 C   0  0  0  0  0  0  0  0  0  0  0  0
   -8.4240    6.1170    8.7580 C   0  0  0  0  0  0  0  0  0  0  0  0
   -9.3950    6.3570    9.7450 N   0  0  0  0  0  0  0  0  0  0  0  0
  -10.5620    5.6840    9.7600 C   0  0  0  0  0  0  0  0  0  0  0  0
  -11.5770    5.6820   10.5960 N   0  0  0  0  0  0  0  0  0  0  0  0
  -12.4690    4.7490   10.1080 N   0  0  0  0  0  0  0  0  0  0  0  0
  -12.0160    4.1880    8.9920 N   0  0  0  0  0  0  0  0  0  0  0  0
  -10.8400    4.7900    8.7610 N   0  0  0  0  0  0  0  0  0  0  0  0
   -9.9950    4.4790    7.6090 C   0  0  0  0  0  0  0  0  0  0  0  0
   -8.6630    5.2070    7.7200 C   0  0  0  0  0  0  0  0  0  0  0  0
  -10.7490    4.8610    6.3730 C   0  0  0  0  0  0  0  0  0  0  0  0
  -11.0350    6.2020    6.1170 C   0  0  0  0  0  0  0  0  0  0  0  0
  -11.7370    6.5580    4.9650 C   0  0  0  0  0  0  0  0  0  0  0  0
  -12.1550    5.5730    4.0710 C   0  0  0  0  0  0  0  0  0  0  0  0
  -11.8700    4.2310    4.3270 C   0  0  0  0  0  0  0  0  0  0  0  0
  -11.1660    3.8760    5.4790 C   0  0  0  0  0  0  0  0  0  0  0  0
  -12.0160    7.8660    4.7150 O   0  0  0  0  0  0  0  0  0  0  0  0
   -6.8990    7.6510    9.7710 O   0  0  0  0  0  0  0  0  0  0  0  0
   -6.8069    3.1524    5.3210 N   0  0  0  0  0  0  0  0  0  0  0  0
   -7.2774    2.4267    4.3174 N   0  0  0  0  0  0  0  0  0  0  0  0
   -8.5287    2.8577    4.0768 C   0  0  0  0  0  0  0  0  0  0  0  0
   -9.5779    2.1681    2.7928 S   0  0  0  0  0  0  0  0  0  0  0  0
   -8.7898    3.0906    1.4206 C   0  0  0  0  0  0  0  0  0  0  0  0
   -9.2499    4.5489    1.3994 C   0  0  0  0  0  0  0  0  0  0  0  0
   -9.1333    2.4158    0.1191 C   0  0  0  0  0  0  0  0  0  0  0  0
  -10.3343    2.3873   -0.2673 O   0  0  0  0  0  0  0  0  0  0  0  0
   -8.1122    1.7985   -0.6877 N   0  0  0  0  0  0  0  0  0  0  0  0
   -7.0660    0.9804   -0.0597 C   0  0  0  0  0  0  0  0  0  0  0  0
   -6.8451   -0.3119   -0.8666 C   0  0  0  0  0  0  0  0  0  0  0  0
   -7.9853   -1.2809   -0.6546 C   0  0  0  0  0  0  0  0  0  0  0  0
   -8.8719   -1.6528   -1.7160 N   0  0  0  0  0  0  0  0  0  0  0  0
   -8.1597   -1.7772    0.4910 O   0  0  0  0  0  0  0  0  0  0  0  0
   -6.6688   -0.0104   -2.2557 O   0  0  0  0  0  0  0  0  0  0  0  0
   -7.3187    1.0588   -2.8845 C   0  0  0  0  0  0  0  0  0  0  0  0
   -7.2114    1.2198   -4.2696 C   0  0  0  0  0  0  0  0  0  0  0  0
   -7.8594    2.2831   -4.9037 C   0  0  0  0  0  0  0  0  0  0  0  0
   -8.6099    3.1932   -4.1540 C   0  0  0  0  0  0  0  0  0  0  0  0
   -8.7154    3.0419   -2.7671 C   0  0  0  0  0  0  0  0  0  0  0  0
   -8.0749    1.9660   -2.1212 C   0  0  0  0  0  0  0  0  0  0  0  0
   -8.8808    3.8548    4.9128 N   0  0  0  0  0  0  0  0  0  0  0  0
  -10.1615    4.5572    4.9812 C   0  0  0  0  0  0  0  0  0  0  0  0
  1  3  4  0
  1 14  4  0
  1  2  1  0
  3  4  4  0
  4  5  4  0
  5  6  4  0
  5 22  1  0
  6  7  1  0
  6 14  4  0
  7  8  1  0
  8  9  4  0
  8 12  4  0
  9 10  4  0
 10 11  4  0
 11 12  4  0
 12 13  1  0
 13 14  1  0
 13 15  1  6
 15 16  4  0
 15 20  4  0
 16 17  4  0
 17 18  4  0
 17 21  1  0
 18 19  4  0
 19 20  4  0
 23 24  4  0
 24 25  4  0
 25 26  1  0
 26 27  1  0
 27 28  1  0
 27 29  1  0
 29 30  2  0
 29 31  1  0
 31 32  1  0
 32 33  1  0
 33 34  1  0
 34 35  1  0
 34 36  2  0
 33 37  1  0
 37 38  1  0
 38 39  4  0
 39 40  4  0
 40 41  4  0
 41 42  4  0
 42 43  4  0
 25 44  4  0
 44 45  1  0
 43 31  1  0
 43 38  4  0
  2 23  4  0
  2 44  4  0
M  END
$$$$

     RDKit          3D

 45 51  0  0  0  0  0  0  0  0999 V2000
   -7.6410    4.9930    6.8080 C   0  0  0  0  0  0  0  0  0  1  0  0
   -7.7310    4.0530    5.7140 C   0  0  0  0  0  0  0  0  0  2  0  0
   -6.4520    5.6300    6.8680 N   0  0  0  0  0  0  0  0  0  0  0  0
   -6.2260    6.5240    7.8670 N   0  0  0  0  0  0  0  0  0  0  0  0
   -7.1930    6.7500    8.7820 C   0  0  0  0  0  0  0  0  0  0  0  0
   -8.4240    6.1170    8.7580 C   0  0  0  0  0  0  0  0  0  0  0  0
   -9.3950    6.3570    9.7450 N   0  0  0  0  0  0  0  0  0  0  0  0
  -10.5620    5.6840    9.7600 C   0  0  0  0  0  0  0  0  0  0  0  0
  -11.5770    5.6820   10.5960 N   0  0  0  0  0  0  0  0  0  0  0  0
  -12.4690    4.7490   10.1080 N   0  0  0  0  0  0  0  0  0  0  0  0
  -12.0160    4.1880    8.9920 N   0  0  0  0  0  0  0  0  0  0  0  0
  -10.8400    4.7900    8.7610 N   0  0  0  0  0  0  0  0  0  0  0  0
   -9.9950    4.4790    7.6090 C   0  0  0  0  0  0  0  0  0  0  0  0
   -8.6630    5.2070    7.7200 C   0  0  0  0  0  0  0  0  0  0  0  0
  -10.7490    4.8610    6.3730 C   0  0  0  0  0  0  0  0  0  0  0  0
  -11.0350    6.2020    6.1170 C   0  0  0  0  0  0  0  0  0  0  0  0
  -11.7370    6.5580    4.9650 C   0  0  0  0  0  0  0  0  0  0  0  0
  -12.1550    5.5730    4.0710 C   0  0  0  0  0  0  0  0  0  0  0  0
  -11.8700    4.2310    4.3270 C   0  0  0  0  0  0  0  0  0  0  0  0
  -11.1660    3.8760    5.4790 C   0  0  0  0  0  0  0  0  0  0  0  0
  -12.0160    7.8660    4.7150 O   0  0  0  0  0  0  0  0  0  0  0  0
   -6.8990    7.6510    9.7710 O   0  0  0  0  0  0  0  0  0  0  0  0
   -6.8210    3.1229    5.3581 N   0  0  0  0  0  0  0  0  0  0  0  0
   -7.2447    2.4651    4.2904 N   0  0  0  0  0  0  0  0  0  0  0  0
   -8.4534    2.9651    3.9787 C   0  0  0  0  0  0  0  0  0  0  0  0
   -9.3866    2.4480    2.5336 S   0  0  0  0  0  0  0  0  0  0  0  0
   -8.7418    3.7659    1.4329 C   0  0  0  0  0  0  0  0  0  0  0  0
   -7.3763    3.3447    0.8809 C   0  0  0  0  0  0  0  0  0  0  0  0
   -9.7012    4.0696    0.3058 C   0  0  0  0  0  0  0  0  0  0  0  0
   -9.3874    4.9416   -0.5495 O   0  0  0  0  0  0  0  0  0  0  0  0
  -10.9847    3.4305    0.2060 N   0  0  0  0  0  0  0  0  0  0  0  0
  -12.1251    4.1361    0.8123 C   0  0  0  0  0  0  0  0  0  0  0  0
  -13.3752    3.2337    0.9053 C   0  0  0  0  0  0  0  0  0  0  0  0
  -13.3025    2.2060    2.0100 C   0  0  0  0  0  0  0  0  0  0  0  0
  -14.2170    1.1086    2.0248 N   0  0  0  0  0  0  0  0  0  0  0  0
  -12.4762    2.3295    2.9527 O   0  0  0  0  0  0  0  0  0  0  0  0
  -13.5977    2.5794   -0.3432 O   0  0  0  0  0  0  0  0  0  0  0  0
  -12.5481    2.0444   -1.0909 C   0  0  0  0  0  0  0  0  0  0  0  0
  -12.8196    1.1279   -2.1115 C   0  0  0  0  0  0  0  0  0  0  0  0
  -11.7721    0.5684   -2.8465 C   0  0  0  0  0  0  0  0  0  0  0  0
  -10.4515    0.9272   -2.5654 C   0  0  0  0  0  0  0  0  0  0  0  0
  -10.1753    1.8567   -1.5581 C   0  0  0  0  0  0  0  0  0  0  0  0
  -11.2256    2.4358   -0.8170 C   0  0  0  0  0  0  0  0  0  0  0  0
   -8.8384    3.9233    4.8469 N   0  0  0  0  0  0  0  0  0  0  0  0
   -9.9570    4.8532    4.6865 C   0  0  0  0  0  0  0  0  0  0  0  0
  1  3  4  0
  1 14  4  0
  1  2  1  0
  3  4  4  0
  4  5  4  0
  5  6  4  0
  5 22  1  0
  6  7  1  0
  6 14  4  0
  7  8  1  0
  8  9  4  0
  8 12  4  0
  9 10  4  0
 10 11  4  0
 11 12  4  0
 12 13  1  0
 13 14  1  0
 13 15  1  6
 15 16  4  0
 15 20  4  0
 16 17  4  0
 17 18  4  0
 17 21  1  0
 18 19  4  0
 19 20  4  0
 23 24  4  0
 24 25  4  0
 25 26  1  0
 26 27  1  0
 27 28  1  0
 27 29  1  0
 29 30  2  0
 29 31  1  0
 31 32  1  0
 32 33  1  0
 33 34  1  0
 34 35  1  0
 34 36  2  0
 33 37  1  0
 37 38  1  0
 38 39  4  0
 39 40  4  0
 40 41  4  0
 41 42  4  0
 42 43  4  0
 25 44  4  0
 44 45  1  0
 43 31  1  0
 43 38  4  0
  2 23  4  0
  2 44  4  0
M  END
$$$$

     RDKit          3D

 45 51  0  0  0  0  0  0  0  0999 V2000
   -7.6410    4.9930    6.8080 C   0  0  0  0  0  0  0  0  0  1  0  0
   -7.7310    4.0530    5.7140 C   0  0  0  0  0  0  0  0  0  2  0  0
   -6.4520    5.6300    6.8680 N   0  0  0  0  0  0  0  0  0  0  0  0
   -6.2260    6.5240    7.8670 N   0  0  0  0  0  0  0  0  0  0  0  0
   -7.1930    6.7500    8.7820 C   0  0  0  0  0  0  0  0  0  0  0  0
   -8.4240    6.1170    8.7580 C   0  0  0  0  0  0  0  0  0  0  0  0
   -9.3950    6.3570    9.7450 N   0  0  0  0  0  0  0  0  0  0  0  0
  -10.5620    5.6840    9.7600 C   0  0  0  0  0  0  0  0  0  0  0  0
  -11.5770    5.6820   10.5960 N   0  0  0  0  0  0  0  0  0  0  0  0
  -12.4690    4.7490   10.1080 N   0  0  0  0  0  0  0  0  0  0  0  0
  -12.0160    4.1880    8.9920 N   0  0  0  0  0  0  0  0  0  0  0  0
  -10.8400    4.7900    8.7610 N   0  0  0  0  0  0  0  0  0  0  0  0
   -9.9950    4.4790    7.6090 C   0  0  0  0  0  0  0  0  0  0  0  0
   -8.6630    5.2070    7.7200 C   0  0  0  0  0  0  0  0  0  0  0  0
  -10.7490    4.8610    6.3730 C   0  0  0  0  0  0  0  0  0  0  0  0
  -11.0350    6.2020    6.1170 C   0  0  0  0  0  0  0  0  0  0  0  0
  -11.7370    6.5580    4.9650 C   0  0  0  0  0  0  0  0  0  0  0  0
  -12.1550    5.5730    4.0710 C   0  0  0  0  0  0  0  0  0  0  0  0
  -11.8700    4.2310    4.3270 C   0  0  0  0  0  0  0  0  0  0  0  0
  -11.1660    3.8760    5.4790 C   0  0  0  0  0  0  0  0  0  0  0  0
  -12.0160    7.8660    4.7150 O   0  0  0  0  0  0  0  0  0  0  0  0
   -6.8990    7.6510    9.7710 O   0  0  0  0  0  0  0  0  0  0  0  0
   -6.8044    3.1577    5.3141 N   0  0  0  0  0  0  0  0  0  0  0  0
   -7.2733    2.4412    4.3034 N   0  0  0  0  0  0  0  0  0  0  0  0
   -8.5258    2.8726    4.0668 C   0  0  0  0  0  0  0  0  0  0  0  0
   -9.5792    2.1949    2.7819 S   0  0  0  0  0  0  0  0  0  0  0  0
   -9.0882    3.4073    1.5019 C   0  0  0  0  0  0  0  0  0  0  0  0
   -7.7066    3.0849    0.9275 C   0  0  0  0  0  0  0  0  0  0  0  0
  -10.1488    3.4749    0.4313 C   0  0  0  0  0  0  0  0  0  0  0  0
  -11.0632    4.3368    0.5429 O   0  0  0  0  0  0  0  0  0  0  0  0
  -10.1369    2.6132   -0.7247 N   0  0  0  0  0  0  0  0  0  0  0  0
  -10.0773    1.1510   -0.5699 C   0  0  0  0  0  0  0  0  0  0  0  0
  -11.0375    0.4577   -1.5569 C   0  0  0  0  0  0  0  0  0  0  0  0
  -12.5103    0.5924   -1.2274 C   0  0  0  0  0  0  0  0  0  0  0  0
  -12.9983    1.3243   -0.0980 N   0  0  0  0  0  0  0  0  0  0  0  0
  -13.3433    0.0283   -1.9865 O   0  0  0  0  0  0  0  0  0  0  0  0
  -10.8102    0.9522   -2.8779 O   0  0  0  0  0  0  0  0  0  0  0  0
  -10.5386    2.3015   -3.1282 C   0  0  0  0  0  0  0  0  0  0  0  0
  -10.5773    2.7866   -4.4396 C   0  0  0  0  0  0  0  0  0  0  0  0
  -10.3104    4.1338   -4.6966 C   0  0  0  0  0  0  0  0  0  0  0  0
   -9.9957    4.9977   -3.6445 C   0  0  0  0  0  0  0  0  0  0  0  0
   -9.9421    4.5162   -2.3322 C   0  0  0  0  0  0  0  0  0  0  0  0
  -10.2186    3.1609   -2.0610 C   0  0  0  0  0  0  0  0  0  0  0  0
   -8.8787    3.8627    4.9091 N   0  0  0  0  0  0  0  0  0  0  0  0
  -10.1504    4.5830    4.9537 C   0  0  0  0  0  0  0  0  0  0  0  0
  1  3  4  0
  1 14  4  0
  1  2  1  0
  3  4  4  0
  4  5  4  0
  5  6  4  0
  5 22  1  0
  6  7  1  0
  6 14  4  0
  7  8  1  0
  8  9  4  0
  8 12  4  0
  9 10  4  0
 10 11  4  0
 11 12  4  0
 12 13  1  0
 13 14  1  0
 13 15  1  6
 15 16  4  0
 15 20  4  0
 16 17  4  0
 17 18  4  0
 17 21  1  0
 18 19  4  0
 19 20  4  0
 23 24  4  0
 24 25  4  0
 25 26  1  0
 26 27  1  0
 27 28  1  0
 27 29  1  0
 29 30  2  0
 29 31  1  0
 31 32  1  0
 32 33  1  0
 33 34  1  0
 34 35  1  0
 34 36  2  0
 33 37  1  0
 37 38  1  0
 38 39  4  0
 39 40  4  0
 40 41  4  0
 41 42  4  0
 42 43  4  0
 25 44  4  0
 44 45  1  0
 43 31  1  0
 43 38  4  0
  2 23  4  0
  2 44  4  0
M  END
$$$$

     RDKit          3D

 45 51  0  0  0  0  0  0  0  0999 V2000
   -7.6410    4.9930    6.8080 C   0  0  0  0  0  0  0  0  0  1  0  0
   -7.7310    4.0530    5.7140 C   0  0  0  0  0  0  0  0  0  2  0  0
   -6.4520    5.6300    6.8680 N   0  0  0  0  0  0  0  0  0  0  0  0
   -6.2260    6.5240    7.8670 N   0  0  0  0  0  0  0  0  0  0  0  0
   -7.1930    6.7500    8.7820 C   0  0  0  0  0  0  0  0  0  0  0  0
   -8.4240    6.1170    8.7580 C   0  0  0  0  0  0  0  0  0  0  0  0
   -9.3950    6.3570    9.7450 N   0  0  0  0  0  0  0  0  0  0  0  0
  -10.5620    5.6840    9.7600 C   0  0  0  0  0  0  0  0  0  0  0  0
  -11.5770    5.6820   10.5960 N   0  0  0  0  0  0  0  0  0  0  0  0
  -12.4690    4.7490   10.1080 N   0  0  0  0  0  0  0  0  0  0  0  0
  -12.0160    4.1880    8.9920 N   0  0  0  0  0  0  0  0  0  0  0  0
  -10.8400    4.7900    8.7610 N   0  0  0  0  0  0  0  0  0  0  0  0
   -9.9950    4.4790    7.6090 C   0  0  0  0  0  0  0  0  0  0  0  0
   -8.6630    5.2070    7.7200 C   0  0  0  0  0  0  0  0  0  0  0  0
  -10.7490    4.8610    6.3730 C   0  0  0  0  0  0  0  0  0  0  0  0
  -11.0350    6.2020    6.1170 C   0  0  0  0  0  0  0  0  0  0  0  0
  -11.7370    6.5580    4.9650 C   0  0  0  0  0  0  0  0  0  0  0  0
  -12.1550    5.5730    4.0710 C   0  0  0  0  0  0  0  0  0  0  0  0
  -11.8700    4.2310    4.3270 C   0  0  0  0  0  0  0  0  0  0  0  0
  -11.1660    3.8760    5.4790 C   0  0  0  0  0  0  0  0  0  0  0  0
  -12.0160    7.8660    4.7150 O   0  0  0  0  0  0  0  0  0  0  0  0
   -6.8990    7.6510    9.7710 O   0  0  0  0  0  0  0  0  0  0  0  0
   -6.8486    3.0889    5.3774 N   0  0  0  0  0  0  0  0  0  0  0  0
   -7.3207    2.3816    4.3605 N   0  0  0  0  0  0  0  0  0  0  0  0
   -8.5274    2.8914    4.0552 C   0  0  0  0  0  0  0  0  0  0  0  0
   -9.5616    2.2744    2.7180 S   0  0  0  0  0  0  0  0  0  0  0  0
   -8.6943    3.0690    1.2994 C   0  0  0  0  0  0  0  0  0  0  0  0
   -8.2558    4.5141    1.5597 C   0  0  0  0  0  0  0  0  0  0  0  0
   -7.5397    2.2193    0.8405 C   0  0  0  0  0  0  0  0  0  0  0  0
   -6.5611    2.0140    1.6084 O   0  0  0  0  0  0  0  0  0  0  0  0
   -7.5580    1.6178   -0.4642 N   0  0  0  0  0  0  0  0  0  0  0  0
   -8.6195    0.6482   -0.7779 C   0  0  0  0  0  0  0  0  0  0  0  0
   -9.0278    0.7819   -2.2514 C   0  0  0  0  0  0  0  0  0  0  0  0
  -10.0563   -0.2510   -2.6219 C   0  0  0  0  0  0  0  0  0  0  0  0
   -9.7550   -1.3231   -3.5168 N   0  0  0  0  0  0  0  0  0  0  0  0
  -11.2137   -0.1666   -2.1338 O   0  0  0  0  0  0  0  0  0  0  0  0
   -7.8709    0.6786   -3.0806 O   0  0  0  0  0  0  0  0  0  0  0  0
   -6.6741    1.3182   -2.7370 C   0  0  0  0  0  0  0  0  0  0  0  0
   -5.6600    1.4522   -3.6899 C   0  0  0  0  0  0  0  0  0  0  0  0
   -4.4808    2.1294   -3.3668 C   0  0  0  0  0  0  0  0  0  0  0  0
   -4.3132    2.6756   -2.0908 C   0  0  0  0  0  0  0  0  0  0  0  0
   -5.3167    2.5313   -1.1266 C   0  0  0  0  0  0  0  0  0  0  0  0
   -6.5006    1.8263   -1.4326 C   0  0  0  0  0  0  0  0  0  0  0  0
   -8.8484    3.9199    4.8638 N   0  0  0  0  0  0  0  0  0  0  0  0
  -10.0838    4.7028    4.8734 C   0  0  0  0  0  0  0  0  0  0  0  0
  1  3  4  0
  1 14  4  0
  1  2  1  0
  3  4  4  0
  4  5  4  0
  5  6  4  0
  5 22  1  0
  6  7  1  0
  6 14  4  0
  7  8  1  0
  8  9  4  0
  8 12  4  0
  9 10  4  0
 10 11  4  0
 11 12  4  0
 12 13  1  0
 13 14  1  0
 13 15  1  6
 15 16  4  0
 15 20  4  0
 16 17  4  0
 17 18  4  0
 17 21  1  0
 18 19  4  0
 19 20  4  0
 23 24  4  0
 24 25  4  0
 25 26  1  0
 26 27  1  0
 27 28  1  0
 27 29  1  0
 29 30  2  0
 29 31  1  0
 31 32  1  0
 32 33  1  0
 33 34  1  0
 34 35  1  0
 34 36  2  0
 33 37  1  0
 37 38  1  0
 38 39  4  0
 39 40  4  0
 40 41  4  0
 41 42  4  0
 42 43  4  0
 25 44  4  0
 44 45  1  0
 43 31  1  0
 43 38  4  0
  2 23  4  0
  2 44  4  0
M  END
$$$$

     RDKit          3D

 40 46  0  0  0  0  0  0  0  0999 V2000
   -7.6410    4.9930    6.8080 C   0  0  0  0  0  0  0  0  0  1  0  0
   -7.7310    4.0530    5.7140 C   0  0  0  0  0  0  0  0  0  2  0  0
   -6.4520    5.6300    6.8680 N   0  0  0  0  0  0  0  0  0  0  0  0
   -6.2260    6.5240    7.8670 N   0  0  0  0  0  0  0  0  0  0  0  0
   -7.1930    6.7500    8.7820 C   0  0  0  0  0  0  0  0  0  0  0  0
   -8.4240    6.1170    8.7580 C   0  0  0  0  0  0  0  0  0  0  0  0
   -9.3950    6.3570    9.7450 N   0  0  0  0  0  0  0  0  0  0  0  0
  -10.5620    5.6840    9.7600 C   0  0  0  0  0  0  0  0  0  0  0  0
  -11.5770    5.6820   10.5960 N   0  0  0  0  0  0  0  0  0  0  0  0
  -12.4690    4.7490   10.1080 N   0  0  0  0  0  0  0  0  0  0  0  0
  -12.0160    4.1880    8.9920 N   0  0  0  0  0  0  0  0  0  0  0  0
  -10.8400    4.7900    8.7610 N   0  0  0  0  0  0  0  0  0  0  0  0
   -9.9950    4.4790    7.6090 C   0  0  0  0  0  0  0  0  0  0  0  0
   -8.6630    5.2070    7.7200 C   0  0  0  0  0  0  0  0  0  0  0  0
  -10.7490    4.8610    6.3730 C   0  0  0  0  0  0  0  0  0  0  0  0
  -11.0350    6.2020    6.1170 C   0  0  0  0  0  0  0  0  0  0  0  0
  -11.7370    6.5580    4.9650 C   0  0  0  0  0  0  0  0  0  0  0  0
  -12.1550    5.5730    4.0710 C   0  0  0  0  0  0  0  0  0  0  0  0
  -11.8700    4.2310    4.3270 C   0  0  0  0  0  0  0  0  0  0  0  0
  -11.1660    3.8760    5.4790 C   0  0  0  0  0  0  0  0  0  0  0  0
  -12.0160    7.8660    4.7150 O   0  0  0  0  0  0  0  0  0  0  0  0
   -6.8990    7.6510    9.7710 O   0  0  0  0  0  0  0  0  0  0  0  0
   -6.9379    2.9537    5.5256 N   0  0  0  0  0  0  0  0  0  0  0  0
   -7.2743    2.1725    4.4765 C   0  0  0  0  0  0  0  0  0  0  0  0
   -6.4894    1.0378    4.0838 N   0  0  0  0  0  0  0  0  0  0  0  0
   -6.8419    0.1457    3.0096 C   0  0  0  0  0  0  0  0  0  0  0  0
   -8.0441    0.0481    2.6433 O   0  0  0  0  0  0  0  0  0  0  0  0
   -5.8050   -0.6840    2.2716 C   0  0  0  0  0  0  0  0  0  0  0  0
   -4.4746   -0.9278    3.0387 C   0  0  0  0  0  0  0  0  0  0  0  0
   -3.7287   -2.0120    2.2983 C   0  0  0  0  0  0  0  0  0  0  0  0
   -3.2946   -1.4775    1.1538 C   0  0  0  0  0  0  0  0  0  0  0  0
   -3.7565   -0.0416    1.1354 C   0  0  0  0  0  0  0  0  0  0  0  0
   -3.6351    0.2672    2.6169 C   0  0  0  0  0  0  0  0  0  0  0  0
   -5.2942   -0.0638    0.9243 C   0  0  0  0  0  0  0  0  0  0  0  0
   -5.8419    1.3002    0.5612 C   0  0  0  0  0  0  0  0  0  0  0  0
   -6.4650    1.4532   -0.5230 O   0  0  0  0  0  0  0  0  0  0  0  0
   -5.6498    2.3988    1.3907 O   0  0  0  0  0  0  0  0  0  0  0  0
   -8.6443    2.7552    3.6842 S   0  0  0  0  0  0  0  0  0  0  0  0
   -8.8220    4.0568    4.7350 C   0  0  0  0  0  0  0  0  0  0  0  0
   -9.9096    5.0800    4.6447 C   0  0  0  0  0  0  0  0  0  0  0  0
  1  3  4  0
  1 14  4  0
  1  2  1  0
  3  4  4  0
  4  5  4  0
  5  6  4  0
  5 22  1  0
  6  7  1  0
  6 14  4  0
  7  8  1  0
  8  9  4  0
  8 12  4  0
  9 10  4  0
 10 11  4  0
 11 12  4  0
 12 13  1  0
 13 14  1  0
 13 15  1  6
 15 16  4  0
 15 20  4  0
 16 17  4  0
 17 18  4  0
 17 21  1  0
 18 19  4  0
 19 20  4  0
 23 24  4  0
 24 25  1  0
 25 26  1  0
 26 27  2  0
 26 28  1  0
 28 29  1  0
 29 30  1  0
 30 31  2  0
 31 32  1  0
 32 33  1  0
 32 34  1  0
 34 35  1  0
 35 36  2  0
 35 37  1  0
 24 38  4  0
 38 39  4  0
 39 40  1  0
 34 28  1  0
 33 29  1  0
  2 23  4  0
  2 39  4  0
M  CHG  1  37  -1
M  END
$$$$

     RDKit          3D

 40 46  0  0  0  0  0  0  0  0999 V2000
   -7.6410    4.9930    6.8080 C   0  0  0  0  0  0  0  0  0  1  0  0
   -7.7310    4.0530    5.7140 C   0  0  0  0  0  0  0  0  0  2  0  0
   -6.4520    5.6300    6.8680 N   0  0  0  0  0  0  0  0  0  0  0  0
   -6.2260    6.5240    7.8670 N   0  0  0  0  0  0  0  0  0  0  0  0
   -7.1930    6.7500    8.7820 C   0  0  0  0  0  0  0  0  0  0  0  0
   -8.4240    6.1170    8.7580 C   0  0  0  0  0  0  0  0  0  0  0  0
   -9.3950    6.3570    9.7450 N   0  0  0  0  0  0  0  0  0  0  0  0
  -10.5620    5.6840    9.7600 C   0  0  0  0  0  0  0  0  0  0  0  0
  -11.5770    5.6820   10.5960 N   0  0  0  0  0  0  0  0  0  0  0  0
  -12.4690    4.7490   10.1080 N   0  0  0  0  0  0  0  0  0  0  0  0
  -12.0160    4.1880    8.9920 N   0  0  0  0  0  0  0  0  0  0  0  0
  -10.8400    4.7900    8.7610 N   0  0  0  0  0  0  0  0  0  0  0  0
   -9.9950    4.4790    7.6090 C   0  0  0  0  0  0  0  0  0  0  0  0
   -8.6630    5.2070    7.7200 C   0  0  0  0  0  0  0  0  0  0  0  0
  -10.7490    4.8610    6.3730 C   0  0  0  0  0  0  0  0  0  0  0  0
  -11.0350    6.2020    6.1170 C   0  0  0  0  0  0  0  0  0  0  0  0
  -11.7370    6.5580    4.9650 C   0  0  0  0  0  0  0  0  0  0  0  0
  -12.1550    5.5730    4.0710 C   0  0  0  0  0  0  0  0  0  0  0  0
  -11.8700    4.2310    4.3270 C   0  0  0  0  0  0  0  0  0  0  0  0
  -11.1660    3.8760    5.4790 C   0  0  0  0  0  0  0  0  0  0  0  0
  -12.0160    7.8660    4.7150 O   0  0  0  0  0  0  0  0  0  0  0  0
   -6.8990    7.6510    9.7710 O   0  0  0  0  0  0  0  0  0  0  0  0
   -6.9078    2.9838    5.4906 N   0  0  0  0  0  0  0  0  0  0  0  0
   -7.2678    2.1792    4.4676 C   0  0  0  0  0  0  0  0  0  0  0  0
   -6.4435    1.1011    4.0099 N   0  0  0  0  0  0  0  0  0  0  0  0
   -6.9124    0.0343    3.1761 C   0  0  0  0  0  0  0  0  0  0  0  0
   -6.1915   -0.3426    2.2125 O   0  0  0  0  0  0  0  0  0  0  0  0
   -8.1791   -0.7284    3.5285 C   0  0  0  0  0  0  0  0  0  0  0  0
   -8.7377   -1.5759    2.3495 C   0  0  0  0  0  0  0  0  0  0  0  0
  -10.1234   -2.0243    2.7419 C   0  0  0  0  0  0  0  0  0  0  0  0
   -9.9794   -2.9426    3.7014 C   0  0  0  0  0  0  0  0  0  0  0  0
   -8.4985   -3.1002    3.9430 C   0  0  0  0  0  0  0  0  0  0  0  0
   -8.0020   -2.8940    2.5225 C   0  0  0  0  0  0  0  0  0  0  0  0
   -8.0162   -1.8075    4.6554 C   0  0  0  0  0  0  0  0  0  0  0  0
   -6.6330   -1.9559    5.2507 C   0  0  0  0  0  0  0  0  0  0  0  0
   -5.6546   -2.3206    4.5462 O   0  0  0  0  0  0  0  0  0  0  0  0
   -6.4362   -1.6968    6.6012 O   0  0  0  0  0  0  0  0  0  0  0  0
   -8.6830    2.7118    3.7238 S   0  0  0  0  0  0  0  0  0  0  0  0
   -8.8635    4.0120    4.7765 C   0  0  0  0  0  0  0  0  0  0  0  0
   -9.9890    4.9952    4.7202 C   0  0  0  0  0  0  0  0  0  0  0  0
  1  3  4  0
  1 14  4  0
  1  2  1  0
  3  4  4  0
  4  5  4  0
  5  6  4  0
  5 22  1  0
  6  7  1  0
  6 14  4  0
  7  8  1  0
  8  9  4  0
  8 12  4  0
  9 10  4  0
 10 11  4  0
 11 12  4  0
 12 13  1  0
 13 14  1  0
 13 15  1  6
 15 16  4  0
 15 20  4  0
 16 17  4  0
 17 18  4  0
 17 21  1  0
 18 19  4  0
 19 20  4  0
 23 24  4  0
 24 25  1  0
 25 26  1  0
 26 27  2  0
 26 28  1  0
 28 29  1  0
 29 30  1  0
 30 31  2  0
 31 32  1  0
 32 33  1  0
 32 34  1  0
 34 35  1  0
 35 36  2  0
 35 37  1  0
 24 38  4  0
 38 39  4  0
 39 40  1  0
 34 28  1  0
 33 29  1  0
  2 23  4  0
  2 39  4  0
M  CHG  1  37  -1
M  END
$$$$

     RDKit          3D

 41 47  0  0  0  0  0  0  0  0999 V2000
   -7.6410    4.9930    6.8080 C   0  0  0  0  0  0  0  0  0  1  0  0
   -7.7310    4.0530    5.7140 C   0  0  0  0  0  0  0  0  0  2  0  0
   -6.4520    5.6300    6.8680 N   0  0  0  0  0  0  0  0  0  0  0  0
   -6.2260    6.5240    7.8670 N   0  0  0  0  0  0  0  0  0  0  0  0
   -7.1930    6.7500    8.7820 C   0  0  0  0  0  0  0  0  0  0  0  0
   -8.4240    6.1170    8.7580 C   0  0  0  0  0  0  0  0  0  0  0  0
   -9.3950    6.3570    9.7450 N   0  0  0  0  0  0  0  0  0  0  0  0
  -10.5620    5.6840    9.7600 C   0  0  0  0  0  0  0  0  0  0  0  0
  -11.5770    5.6820   10.5960 N   0  0  0  0  0  0  0  0  0  0  0  0
  -12.4690    4.7490   10.1080 N   0  0  0  0  0  0  0  0  0  0  0  0
  -12.0160    4.1880    8.9920 N   0  0  0  0  0  0  0  0  0  0  0  0
  -10.8400    4.7900    8.7610 N   0  0  0  0  0  0  0  0  0  0  0  0
   -9.9950    4.4790    7.6090 C   0  0  0  0  0  0  0  0  0  0  0  0
   -8.6630    5.2070    7.7200 C   0  0  0  0  0  0  0  0  0  0  0  0
  -10.7490    4.8610    6.3730 C   0  0  0  0  0  0  0  0  0  0  0  0
  -11.0350    6.2020    6.1170 C   0  0  0  0  0  0  0  0  0  0  0  0
  -11.7370    6.5580    4.9650 C   0  0  0  0  0  0  0  0  0  0  0  0
  -12.1550    5.5730    4.0710 C   0  0  0  0  0  0  0  0  0  0  0  0
  -11.8700    4.2310    4.3270 C   0  0  0  0  0  0  0  0  0  0  0  0
  -11.1660    3.8760    5.4790 C   0  0  0  0  0  0  0  0  0  0  0  0
  -12.0160    7.8660    4.7150 O   0  0  0  0  0  0  0  0  0  0  0  0
   -6.8990    7.6510    9.7710 O   0  0  0  0  0  0  0  0  0  0  0  0
   -6.8271    3.1200    5.3523 N   0  0  0  0  0  0  0  0  0  0  0  0
   -7.2568    2.4271    4.3073 N   0  0  0  0  0  0  0  0  0  0  0  0
   -6.4806    1.3926    3.6663 C   0  0  0  0  0  0  0  0  0  0  0  0
   -5.1293    1.2082    4.0179 C   0  0  0  0  0  0  0  0  0  0  0  0
   -4.3636    0.2124    3.4045 C   0  0  0  0  0  0  0  0  0  0  0  0
   -4.9354   -0.6138    2.4355 C   0  0  0  0  0  0  0  0  0  0  0  0
   -6.2748   -0.4468    2.0792 C   0  0  0  0  0  0  0  0  0  0  0  0
   -7.0461    0.5478    2.6889 C   0  0  0  0  0  0  0  0  0  0  0  0
   -8.4816    2.8701    3.9500 C   0  0  0  0  0  0  0  0  0  0  0  0
   -8.8439    3.8972    4.8012 C   0  0  0  0  0  0  0  0  0  0  0  0
  -10.0625    4.7335    4.7324 C   0  0  0  0  0  0  0  0  0  0  0  0
  -10.6498    5.0592    3.6170 N   0  0  0  0  0  0  0  0  0  0  0  0
  -10.1304    4.7948    2.3358 N   0  0  0  0  0  0  0  0  0  0  0  0
  -10.9649    4.4603    1.2415 C   0  0  0  0  0  0  0  0  0  0  0  0
  -12.1739    4.1436    1.3995 O   0  0  0  0  0  0  0  0  0  0  0  0
  -10.3336    4.5391   -0.1057 C   0  0  0  0  0  0  0  0  0  0  0  0
   -8.5495    4.8723    0.1520 S   0  0  0  0  0  0  0  0  0  0  0  0
   -8.8503    5.2211    1.8801 C   0  0  0  0  0  0  0  0  0  0  0  0
   -8.0520    6.4509    2.6096 S   0  0  0  0  0  0  0  0  0  0  0  0
  1  3  4  0
  1 14  4  0
  1  2  1  0
  3  4  4  0
  4  5  4  0
  5  6  4  0
  5 22  1  0
  6  7  1  0
  6 14  4  0
  7  8  1  0
  8  9  4  0
  8 12  4  0
  9 10  4  0
 10 11  4  0
 11 12  4  0
 12 13  1  0
 13 14  1  0
 13 15  1  6
 15 16  4  0
 15 20  4  0
 16 17  4  0
 17 18  4  0
 17 21  1  0
 18 19  4  0
 19 20  4  0
 23 24  4  0
 24 25  1  0
 25 26  4  0
 26 27  4  0
 27 28  4  0
 28 29  4  0
 29 30  4  0
 24 31  4  0
 31 32  4  0
 32 33  1  0
 33 34  2  3
 34 35  1  0
 35 36  1  0
 36 37  2  0
 36 38  1  0
 38 39  1  0
 39 40  1  0
 40 41  2  0
 40 35  1  0
 30 25  4  0
  2 23  4  0
  2 32  4  0
M  END
$$$$

     RDKit          3D

 34 39  0  0  0  0  0  0  0  0999 V2000
   -7.6410    4.9930    6.8080 C   0  0  0  0  0  0  0  0  0  1  0  0
   -7.7310    4.0530    5.7140 C   0  0  0  0  0  0  0  0  0  2  0  0
   -6.4520    5.6300    6.8680 N   0  0  0  0  0  0  0  0  0  0  0  0
   -6.2260    6.5240    7.8670 N   0  0  0  0  0  0  0  0  0  0  0  0
   -7.1930    6.7500    8.7820 C   0  0  0  0  0  0  0  0  0  0  0  0
   -8.4240    6.1170    8.7580 C   0  0  0  0  0  0  0  0  0  0  0  0
   -9.3950    6.3570    9.7450 N   0  0  0  0  0  0  0  0  0  0  0  0
  -10.5620    5.6840    9.7600 C   0  0  0  0  0  0  0  0  0  0  0  0
  -11.5770    5.6820   10.5960 N   0  0  0  0  0  0  0  0  0  0  0  0
  -12.4690    4.7490   10.1080 N   0  0  0  0  0  0  0  0  0  0  0  0
  -12.0160    4.1880    8.9920 N   0  0  0  0  0  0  0  0  0  0  0  0
  -10.8400    4.7900    8.7610 N   0  0  0  0  0  0  0  0  0  0  0  0
   -9.9950    4.4790    7.6090 C   0  0  0  0  0  0  0  0  0  0  0  0
   -8.6630    5.2070    7.7200 C   0  0  0  0  0  0  0  0  0  0  0  0
  -10.7490    4.8610    6.3730 C   0  0  0  0  0  0  0  0  0  0  0  0
  -11.0350    6.2020    6.1170 C   0  0  0  0  0  0  0  0  0  0  0  0
  -11.7370    6.5580    4.9650 C   0  0  0  0  0  0  0  0  0  0  0  0
  -12.1550    5.5730    4.0710 C   0  0  0  0  0  0  0  0  0  0  0  0
  -11.8700    4.2310    4.3270 C   0  0  0  0  0  0  0  0  0  0  0  0
  -11.1660    3.8760    5.4790 C   0  0  0  0  0  0  0  0  0  0  0  0
  -12.0160    7.8660    4.7150 O   0  0  0  0  0  0  0  0  0  0  0  0
   -6.8990    7.6510    9.7710 O   0  0  0  0  0  0  0  0  0  0  0  0
   -6.7924    3.1937    5.2670 N   0  0  0  0  0  0  0  0  0  0  0  0
   -7.2842    2.4457    4.2870 N   0  0  0  0  0  0  0  0  0  0  0  0
   -8.5686    2.8130    4.1202 C   0  0  0  0  0  0  0  0  0  0  0  0
   -9.6460    2.1237    2.8639 S   0  0  0  0  0  0  0  0  0  0  0  0
   -9.1757    3.3655    1.6180 C   0  0  0  0  0  0  0  0  0  0  0  0
   -9.9397    3.1236    0.3599 C   0  0  0  0  0  0  0  0  0  0  0  0
   -9.3719    2.8135   -0.8210 N   0  0  0  0  0  0  0  0  0  0  0  0
  -10.4554    2.7028   -1.6171 C   0  0  0  0  0  0  0  0  0  0  0  0
  -11.6049    2.9338   -0.9539 N   0  0  0  0  0  0  0  0  0  0  0  0
  -11.2440    3.1910    0.2657 O   0  0  0  0  0  0  0  0  0  0  0  0
   -8.9118    3.7838    4.9832 N   0  0  0  0  0  0  0  0  0  0  0  0
  -10.1068    4.5225    4.9925 N   0  0  0  0  0  0  0  0  0  0  0  0
  1  3  4  0
  1 14  4  0
  1  2  1  0
  3  4  4  0
  4  5  4  0
  5  6  4  0
  5 22  1  0
  6  7  1  0
  6 14  4  0
  7  8  1  0
  8  9  4  0
  8 12  4  0
  9 10  4  0
 10 11  4  0
 11 12  4  0
 12 13  1  0
 13 14  1  0
 13 15  1  6
 15 16  4  0
 15 20  4  0
 16 17  4  0
 17 18  4  0
 17 21  1  0
 18 19  4  0
 19 20  4  0
 23 24  4  0
 24 25  4  0
 25 26  1  0
 26 27  1  0
 27 28  1  0
 28 29  4  0
 29 30  4  0
 30 31  4  0
 31 32  4  0
 25 33  4  0
 33 34  1  0
 32 28  4  0
  2 23  4  0
  2 33  4  0
M  END
$$$$

     RDKit          3D

 34 39  0  0  0  0  0  0  0  0999 V2000
   -7.6410    4.9930    6.8080 C   0  0  0  0  0  0  0  0  0  1  0  0
   -7.7310    4.0530    5.7140 C   0  0  0  0  0  0  0  0  0  2  0  0
   -6.4520    5.6300    6.8680 N   0  0  0  0  0  0  0  0  0  0  0  0
   -6.2260    6.5240    7.8670 N   0  0  0  0  0  0  0  0  0  0  0  0
   -7.1930    6.7500    8.7820 C   0  0  0  0  0  0  0  0  0  0  0  0
   -8.4240    6.1170    8.7580 C   0  0  0  0  0  0  0  0  0  0  0  0
   -9.3950    6.3570    9.7450 N   0  0  0  0  0  0  0  0  0  0  0  0
  -10.5620    5.6840    9.7600 C   0  0  0  0  0  0  0  0  0  0  0  0
  -11.5770    5.6820   10.5960 N   0  0  0  0  0  0  0  0  0  0  0  0
  -12.4690    4.7490   10.1080 N   0  0  0  0  0  0  0  0  0  0  0  0
  -12.0160    4.1880    8.9920 N   0  0  0  0  0  0  0  0  0  0  0  0
  -10.8400    4.7900    8.7610 N   0  0  0  0  0  0  0  0  0  0  0  0
   -9.9950    4.4790    7.6090 C   0  0  0  0  0  0  0  0  0  0  0  0
   -8.6630    5.2070    7.7200 C   0  0  0  0  0  0  0  0  0  0  0  0
  -10.7490    4.8610    6.3730 C   0  0  0  0  0  0  0  0  0  0  0  0
  -11.0350    6.2020    6.1170 C   0  0  0  0  0  0  0  0  0  0  0  0
  -11.7370    6.5580    4.9650 C   0  0  0  0  0  0  0  0  0  0  0  0
  -12.1550    5.5730    4.0710 C   0  0  0  0  0  0  0  0  0  0  0  0
  -11.8700    4.2310    4.3270 C   0  0  0  0  0  0  0  0  0  0  0  0
  -11.1660    3.8760    5.4790 C   0  0  0  0  0  0  0  0  0  0  0  0
  -12.0160    7.8660    4.7150 O   0  0  0  0  0  0  0  0  0  0  0  0
   -6.8990    7.6510    9.7710 O   0  0  0  0  0  0  0  0  0  0  0  0
   -6.7921    3.1941    5.2672 N   0  0  0  0  0  0  0  0  0  0  0  0
   -7.2828    2.4483    4.2853 N   0  0  0  0  0  0  0  0  0  0  0  0
   -8.5669    2.8169    4.1166 C   0  0  0  0  0  0  0  0  0  0  0  0
   -9.6410    2.1347    2.8504 S   0  0  0  0  0  0  0  0  0  0  0  0
   -9.2213    3.4019    1.6065 C   0  0  0  0  0  0  0  0  0  0  0  0
   -7.8263    3.2068    1.1093 C   0  0  0  0  0  0  0  0  0  0  0  0
   -6.8445    4.1188    1.2404 N   0  0  0  0  0  0  0  0  0  0  0  0
   -5.8098    3.4829    0.6535 C   0  0  0  0  0  0  0  0  0  0  0  0
   -6.1506    2.2627    0.1959 N   0  0  0  0  0  0  0  0  0  0  0  0
   -7.4057    2.1289    0.4967 O   0  0  0  0  0  0  0  0  0  0  0  0
   -8.9111    3.7855    4.9817 N   0  0  0  0  0  0  0  0  0  0  0  0
  -10.1051    4.5256    4.9901 N   0  0  0  0  0  0  0  0  0  0  0  0
  1  3  4  0
  1 14  4  0
  1  2  1  0
  3  4  4  0
  4  5  4  0
  5  6  4  0
  5 22  1  0
  6  7  1  0
  6 14  4  0
  7  8  1  0
  8  9  4  0
  8 12  4  0
  9 10  4  0
 10 11  4  0
 11 12  4  0
 12 13  1  0
 13 14  1  0
 13 15  1  6
 15 16  4  0
 15 20  4  0
 16 17  4  0
 17 18  4  0
 17 21  1  0
 18 19  4  0
 19 20  4  0
 23 24  4  0
 24 25  4  0
 25 26  1  0
 26 27  1  0
 27 28  1  0
 28 29  4  0
 29 30  4  0
 30 31  4  0
 31 32  4  0
 25 33  4  0
 33 34  1  0
 32 28  4  0
  2 23  4  0
  2 33  4  0
M  END
$$$$

     RDKit          3D

 34 39  0  0  0  0  0  0  0  0999 V2000
   -7.6410    4.9930    6.8080 C   0  0  0  0  0  0  0  0  0  1  0  0
   -7.7310    4.0530    5.7140 C   0  0  0  0  0  0  0  0  0  2  0  0
   -6.4520    5.6300    6.8680 N   0  0  0  0  0  0  0  0  0  0  0  0
   -6.2260    6.5240    7.8670 N   0  0  0  0  0  0  0  0  0  0  0  0
   -7.1930    6.7500    8.7820 C   0  0  0  0  0  0  0  0  0  0  0  0
   -8.4240    6.1170    8.7580 C   0  0  0  0  0  0  0  0  0  0  0  0
   -9.3950    6.3570    9.7450 N   0  0  0  0  0  0  0  0  0  0  0  0
  -10.5620    5.6840    9.7600 C   0  0  0  0  0  0  0  0  0  0  0  0
  -11.5770    5.6820   10.5960 N   0  0  0  0  0  0  0  0  0  0  0  0
  -12.4690    4.7490   10.1080 N   0  0  0  0  0  0  0  0  0  0  0  0
  -12.0160    4.1880    8.9920 N   0  0  0  0  0  0  0  0  0  0  0  0
  -10.8400    4.7900    8.7610 N   0  0  0  0  0  0  0  0  0  0  0  0
   -9.9950    4.4790    7.6090 C   0  0  0  0  0  0  0  0  0  0  0  0
   -8.6630    5.2070    7.7200 C   0  0  0  0  0  0  0  0  0  0  0  0
  -10.7490    4.8610    6.3730 C   0  0  0  0  0  0  0  0  0  0  0  0
  -11.0350    6.2020    6.1170 C   0  0  0  0  0  0  0  0  0  0  0  0
  -11.7370    6.5580    4.9650 C   0  0  0  0  0  0  0  0  0  0  0  0
  -12.1550    5.5730    4.0710 C   0  0  0  0  0  0  0  0  0  0  0  0
  -11.8700    4.2310    4.3270 C   0  0  0  0  0  0  0  0  0  0  0  0
  -11.1660    3.8760    5.4790 C   0  0  0  0  0  0  0  0  0  0  0  0
  -12.0160    7.8660    4.7150 O   0  0  0  0  0  0  0  0  0  0  0  0
   -6.8990    7.6510    9.7710 O   0  0  0  0  0  0  0  0  0  0  0  0
   -6.7942    3.1896    5.2708 N   0  0  0  0  0  0  0  0  0  0  0  0
   -7.2874    2.4384    4.2941 N   0  0  0  0  0  0  0  0  0  0  0  0
   -8.5711    2.8073    4.1260 C   0  0  0  0  0  0  0  0  0  0  0  0
   -9.6525    2.1097    2.8780 S   0  0  0  0  0  0  0  0  0  0  0  0
  -10.3037    0.8269    4.0002 C   0  0  0  0  0  0  0  0  0  0  0  0
  -11.3188   -0.0301    3.3125 C   0  0  0  0  0  0  0  0  0  0  0  0
  -11.9562   -1.0526    3.9135 N   0  0  0  0  0  0  0  0  0  0  0  0
  -12.7457   -1.5017    2.9163 C   0  0  0  0  0  0  0  0  0  0  0  0
  -12.5926   -0.7918    1.7824 N   0  0  0  0  0  0  0  0  0  0  0  0
  -11.7025    0.1085    2.0670 O   0  0  0  0  0  0  0  0  0  0  0  0
   -8.9113    3.7843    4.9828 N   0  0  0  0  0  0  0  0  0  0  0  0
  -10.1090    4.5185    4.9957 N   0  0  0  0  0  0  0  0  0  0  0  0
  1  3  4  0
  1 14  4  0
  1  2  1  0
  3  4  4  0
  4  5  4  0
  5  6  4  0
  5 22  1  0
  6  7  1  0
  6 14  4  0
  7  8  1  0
  8  9  4  0
  8 12  4  0
  9 10  4  0
 10 11  4  0
 11 12  4  0
 12 13  1  0
 13 14  1  0
 13 15  1  6
 15 16  4  0
 15 20  4  0
 16 17  4  0
 17 18  4  0
 17 21  1  0
 18 19  4  0
 19 20  4  0
 23 24  4  0
 24 25  4  0
 25 26  1  0
 26 27  1  0
 27 28  1  0
 28 29  4  0
 29 30  4  0
 30 31  4  0
 31 32  4  0
 25 33  4  0
 33 34  1  0
 32 28  4  0
  2 23  4  0
  2 33  4  0
M  END
$$$$

     RDKit          3D

 40 45  0  0  0  0  0  0  0  0999 V2000
   -7.6410    4.9930    6.8080 C   0  0  0  0  0  0  0  0  0  1  0  0
   -7.7310    4.0530    5.7140 C   0  0  0  0  0  0  0  0  0  2  0  0
   -6.4520    5.6300    6.8680 N   0  0  0  0  0  0  0  0  0  0  0  0
   -6.2260    6.5240    7.8670 N   0  0  0  0  0  0  0  0  0  0  0  0
   -7.1930    6.7500    8.7820 C   0  0  0  0  0  0  0  0  0  0  0  0
   -8.4240    6.1170    8.7580 C   0  0  0  0  0  0  0  0  0  0  0  0
   -9.3950    6.3570    9.7450 N   0  0  0  0  0  0  0  0  0  0  0  0
  -10.5620    5.6840    9.7600 C   0  0  0  0  0  0  0  0  0  0  0  0
  -11.5770    5.6820   10.5960 N   0  0  0  0  0  0  0  0  0  0  0  0
  -12.4690    4.7490   10.1080 N   0  0  0  0  0  0  0  0  0  0  0  0
  -12.0160    4.1880    8.9920 N   0  0  0  0  0  0  0  0  0  0  0  0
  -10.8400    4.7900    8.7610 N   0  0  0  0  0  0  0  0  0  0  0  0
   -9.9950    4.4790    7.6090 C   0  0  0  0  0  0  0  0  0  0  0  0
   -8.6630    5.2070    7.7200 C   0  0  0  0  0  0  0  0  0  0  0  0
  -10.7490    4.8610    6.3730 C   0  0  0  0  0  0  0  0  0  0  0  0
  -11.0350    6.2020    6.1170 C   0  0  0  0  0  0  0  0  0  0  0  0
  -11.7370    6.5580    4.9650 C   0  0  0  0  0  0  0  0  0  0  0  0
  -12.1550    5.5730    4.0710 C   0  0  0  0  0  0  0  0  0  0  0  0
  -11.8700    4.2310    4.3270 C   0  0  0  0  0  0  0  0  0  0  0  0
  -11.1660    3.8760    5.4790 C   0  0  0  0  0  0  0  0  0  0  0  0
  -12.0160    7.8660    4.7150 O   0  0  0  0  0  0  0  0  0  0  0  0
   -6.8990    7.6510    9.7710 O   0  0  0  0  0  0  0  0  0  0  0  0
   -6.8791    2.9989    5.4063 C   0  0  0  0  0  0  0  0  0  0  0  0
   -7.3686    2.3222    4.3098 C   0  0  0  0  0  0  0  0  0  0  0  0
   -8.5552    2.9399    3.9679 C   0  0  0  0  0  0  0  0  0  1  0  0
   -9.3679    2.5856    2.7903 C   0  0  0  0  0  0  0  0  0  2  0  0
   -8.8475    2.8113    1.5066 C   0  0  0  0  0  0  0  0  0  0  0  0
   -9.6072    2.5055    0.3746 C   0  0  0  0  0  0  0  0  0  0  0  0
  -10.8872    1.9649    0.5162 C   0  0  0  0  0  0  0  0  0  0  0  0
  -11.4079    1.7228    1.7901 C   0  0  0  0  0  0  0  0  0  0  0  0
  -10.6544    2.0272    2.9305 C   0  0  0  0  0  0  0  0  0  0  0  0
  -11.3280    1.6552    4.5141 Cl  0  0  0  0  0  0  0  0  0  0  0  0
   -8.8125    3.9744    4.8031 N   0  0  0  0  0  0  0  0  0  0  0  0
   -9.8427    5.0028    4.5988 C   0  0  0  0  0  0  0  0  0  0  0  0
   -9.4782    5.8757    3.4352 C   0  0  0  0  0  0  0  0  0  0  0  0
  -10.2234    5.8907    2.4184 O   0  0  0  0  0  0  0  0  0  0  0  0
   -8.2911    6.6842    3.4914 N   0  0  0  0  0  0  0  0  0  0  0  0
   -7.7538    7.4245    2.3829 C   0  0  0  0  0  0  0  0  0  0  0  0
   -8.3051    7.3575    1.2119 N   0  0  0  0  0  0  0  0  0  0  0  0
   -6.5874    8.2292    2.5754 N   0  0  0  0  0  0  0  0  0  0  0  0
  1  3  4  0
  1 14  4  0
  1  2  1  0
  3  4  4  0
  4  5  4  0
  5  6  4  0
  5 22  1  0
  6  7  1  0
  6 14  4  0
  7  8  1  0
  8  9  4  0
  8 12  4  0
  9 10  4  0
 10 11  4  0
 11 12  4  0
 12 13  1  0
 13 14  1  0
 13 15  1  6
 15 16  4  0
 15 20  4  0
 16 17  4  0
 17 18  4  0
 17 21  1  0
 18 19  4  0
 19 20  4  0
 23 24  4  0
 24 25  4  0
 25 26  1  0
 26 27  4  0
 27 28  4  0
 28 29  4  0
 29 30  4  0
 30 31  4  0
 31 32  1  0
 25 33  4  0
 33 34  1  0
 34 35  1  0
 35 36  2  0
 35 37  1  0
 37 38  1  0
 38 39  2  0
 38 40  1  0
 31 26  4  0
  2 23  4  0
  2 33  4  0
M  END
$$$$

     RDKit          3D

 36 41  0  0  0  0  0  0  0  0999 V2000
   -7.6410    4.9930    6.8080 C   0  0  0  0  0  0  0  0  0  1  0  0
   -7.7310    4.0530    5.7140 C   0  0  0  0  0  0  0  0  0  2  0  0
   -6.4520    5.6300    6.8680 N   0  0  0  0  0  0  0  0  0  0  0  0
   -6.2260    6.5240    7.8670 N   0  0  0  0  0  0  0  0  0  0  0  0
   -7.1930    6.7500    8.7820 C   0  0  0  0  0  0  0  0  0  0  0  0
   -8.4240    6.1170    8.7580 C   0  0  0  0  0  0  0  0  0  0  0  0
   -9.3950    6.3570    9.7450 N   0  0  0  0  0  0  0  0  0  0  0  0
  -10.5620    5.6840    9.7600 C   0  0  0  0  0  0  0  0  0  0  0  0
  -11.5770    5.6820   10.5960 N   0  0  0  0  0  0  0  0  0  0  0  0
  -12.4690    4.7490   10.1080 N   0  0  0  0  0  0  0  0  0  0  0  0
  -12.0160    4.1880    8.9920 N   0  0  0  0  0  0  0  0  0  0  0  0
  -10.8400    4.7900    8.7610 N   0  0  0  0  0  0  0  0  0  0  0  0
   -9.9950    4.4790    7.6090 C   0  0  0  0  0  0  0  0  0  0  0  0
   -8.6630    5.2070    7.7200 C   0  0  0  0  0  0  0  0  0  0  0  0
  -10.7490    4.8610    6.3730 C   0  0  0  0  0  0  0  0  0  0  0  0
  -11.0350    6.2020    6.1170 C   0  0  0  0  0  0  0  0  0  0  0  0
  -11.7370    6.5580    4.9650 C   0  0  0  0  0  0  0  0  0  0  0  0
  -12.1550    5.5730    4.0710 C   0  0  0  0  0  0  0  0  0  0  0  0
  -11.8700    4.2310    4.3270 C   0  0  0  0  0  0  0  0  0  0  0  0
  -11.1660    3.8760    5.4790 C   0  0  0  0  0  0  0  0  0  0  0  0
  -12.0160    7.8660    4.7150 O   0  0  0  0  0  0  0  0  0  0  0  0
   -6.8990    7.6510    9.7710 O   0  0  0  0  0  0  0  0  0  0  0  0
   -6.8298    3.0508    5.5541 N   0  0  0  0  0  0  0  0  0  0  0  0
   -6.8886    2.0710    4.6198 C   0  0  0  0  0  0  0  0  0  0  0  0
   -5.8640    1.1121    4.5539 C   0  0  0  0  0  0  0  0  0  0  0  0
   -4.4799    1.1914    5.6368 Cl  0  0  0  0  0  0  0  0  0  0  0  0
   -5.9402    0.0717    3.6255 C   0  0  0  0  0  0  0  0  0  0  0  0
   -7.0368   -0.0250    2.7704 C   0  0  0  0  0  0  0  0  0  0  0  0
   -8.0596    0.9246    2.8255 C   0  0  0  0  0  0  0  0  0  0  0  0
   -7.9929    2.0010    3.7385 C   0  0  0  0  0  0  0  0  0  0  0  0
   -9.0000    2.9980    3.8223 C   0  0  0  0  0  0  0  0  0  0  0  0
  -10.1667    2.9760    2.9083 C   0  0  0  0  0  0  0  0  0  0  0  0
   -9.9986    2.9622    1.6602 O   0  0  0  0  0  0  0  0  0  0  0  0
  -11.4571    3.0035    3.4232 O   0  0  0  0  0  0  0  0  0  0  0  0
   -8.8801    4.0327    4.7884 C   0  0  0  0  0  0  0  0  0  0  0  0
   -9.8865    5.1649    4.8345 C   0  0  0  0  0  0  0  0  0  0  0  0
  1  3  4  0
  1 14  4  0
  1  2  1  0
  3  4  4  0
  4  5  4  0
  5  6  4  0
  5 22  1  0
  6  7  1  0
  6 14  4  0
  7  8  1  0
  8  9  4  0
  8 12  4  0
  9 10  4  0
 10 11  4  0
 11 12  4  0
 12 13  1  0
 13 14  1  0
 13 15  1  6
 15 16  4  0
 15 20  4  0
 16 17  4  0
 17 18  4  0
 17 21  1  0
 18 19  4  0
 19 20  4  0
 23 24  4  0
 24 25  4  0
 25 26  1  0
 25 27  4  0
 27 28  4  0
 28 29  4  0
 29 30  4  0
 30 31  4  0
 31 32  1  0
 32 33  2  0
 32 34  1  0
 31 35  4  0
 35 36  1  0
 30 24  4  0
  2 23  4  0
  2 35  4  0
M  CHG  1  34  -1
M  END
$$$$

     RDKit          3D

 28 32  0  0  0  0  0  0  0  0999 V2000
   -7.6410    4.9930    6.8080 C   0  0  0  0  0  0  0  0  0  1  0  0
   -7.7310    4.0530    5.7140 C   0  0  0  0  0  0  0  0  0  2  0  0
   -6.4520    5.6300    6.8680 N   0  0  0  0  0  0  0  0  0  0  0  0
   -6.2260    6.5240    7.8670 N   0  0  0  0  0  0  0  0  0  0  0  0
   -7.1930    6.7500    8.7820 C   0  0  0  0  0  0  0  0  0  0  0  0
   -8.4240    6.1170    8.7580 C   0  0  0  0  0  0  0  0  0  0  0  0
   -9.3950    6.3570    9.7450 N   0  0  0  0  0  0  0  0  0  0  0  0
  -10.5620    5.6840    9.7600 C   0  0  0  0  0  0  0  0  0  0  0  0
  -11.5770    5.6820   10.5960 N   0  0  0  0  0  0  0  0  0  0  0  0
  -12.4690    4.7490   10.1080 N   0  0  0  0  0  0  0  0  0  0  0  0
  -12.0160    4.1880    8.9920 N   0  0  0  0  0  0  0  0  0  0  0  0
  -10.8400    4.7900    8.7610 N   0  0  0  0  0  0  0  0  0  0  0  0
   -9.9950    4.4790    7.6090 C   0  0  0  0  0  0  0  0  0  0  0  0
   -8.6630    5.2070    7.7200 C   0  0  0  0  0  0  0  0  0  0  0  0
  -10.7490    4.8610    6.3730 C   0  0  0  0  0  0  0  0  0  0  0  0
  -11.0350    6.2020    6.1170 C   0  0  0  0  0  0  0  0  0  0  0  0
  -11.7370    6.5580    4.9650 C   0  0  0  0  0  0  0  0  0  0  0  0
  -12.1550    5.5730    4.0710 C   0  0  0  0  0  0  0  0  0  0  0  0
  -11.8700    4.2310    4.3270 C   0  0  0  0  0  0  0  0  0  0  0  0
  -11.1660    3.8760    5.4790 C   0  0  0  0  0  0  0  0  0  0  0  0
  -12.0160    7.8660    4.7150 O   0  0  0  0  0  0  0  0  0  0  0  0
   -6.8990    7.6510    9.7710 O   0  0  0  0  0  0  0  0  0  0  0  0
   -6.8882    3.0346    5.4124 N   0  0  0  0  0  0  0  0  0  0  0  0
   -7.2801    2.2363    4.3975 C   0  0  0  0  0  0  0  0  0  0  0  0
   -6.4958    1.1510    3.9110 N   0  0  0  0  0  0  0  0  0  0  0  0
   -8.7775    2.6787    3.7789 S   0  0  0  0  0  0  0  0  0  0  0  0
   -8.9448    3.9622    4.8563 C   0  0  0  0  0  0  0  0  0  0  0  0
  -10.0969    4.9169    4.8432 C   0  0  0  0  0  0  0  0  0  0  0  0
  1  3  4  0
  1 14  4  0
  1  2  1  0
  3  4  4  0
  4  5  4  0
  5  6  4  0
  5 22  1  0
  6  7  1  0
  6 14  4  0
  7  8  1  0
  8  9  4  0
  8 12  4  0
  9 10  4  0
 10 11  4  0
 11 12  4  0
 12 13  1  0
 13 14  1  0
 13 15  1  6
 15 16  4  0
 15 20  4  0
 16 17  4  0
 17 18  4  0
 17 21  1  0
 18 19  4  0
 19 20  4  0
 23 24  4  0
 24 25  1  0
 24 26  4  0
 26 27  4  0
 27 28  1  0
  2 23  4  0
  2 27  4  0
M  END
$$$$

     RDKit          3D

 31 35  0  0  0  0  0  0  0  0999 V2000
   -7.6410    4.9930    6.8080 C   0  0  0  0  0  0  0  0  0  1  0  0
   -7.7310    4.0530    5.7140 C   0  0  0  0  0  0  0  0  0  2  0  0
   -6.4520    5.6300    6.8680 N   0  0  0  0  0  0  0  0  0  0  0  0
   -6.2260    6.5240    7.8670 N   0  0  0  0  0  0  0  0  0  0  0  0
   -7.1930    6.7500    8.7820 C   0  0  0  0  0  0  0  0  0  0  0  0
   -8.4240    6.1170    8.7580 C   0  0  0  0  0  0  0  0  0  0  0  0
   -9.3950    6.3570    9.7450 N   0  0  0  0  0  0  0  0  0  0  0  0
  -10.5620    5.6840    9.7600 C   0  0  0  0  0  0  0  0  0  0  0  0
  -11.5770    5.6820   10.5960 N   0  0  0  0  0  0  0  0  0  0  0  0
  -12.4690    4.7490   10.1080 N   0  0  0  0  0  0  0  0  0  0  0  0
  -12.0160    4.1880    8.9920 N   0  0  0  0  0  0  0  0  0  0  0  0
  -10.8400    4.7900    8.7610 N   0  0  0  0  0  0  0  0  0  0  0  0
   -9.9950    4.4790    7.6090 C   0  0  0  0  0  0  0  0  0  0  0  0
   -8.6630    5.2070    7.7200 C   0  0  0  0  0  0  0  0  0  0  0  0
  -10.7490    4.8610    6.3730 C   0  0  0  0  0  0  0  0  0  0  0  0
  -11.0350    6.2020    6.1170 C   0  0  0  0  0  0  0  0  0  0  0  0
  -11.7370    6.5580    4.9650 C   0  0  0  0  0  0  0  0  0  0  0  0
  -12.1550    5.5730    4.0710 C   0  0  0  0  0  0  0  0  0  0  0  0
  -11.8700    4.2310    4.3270 C   0  0  0  0  0  0  0  0  0  0  0  0
  -11.1660    3.8760    5.4790 C   0  0  0  0  0  0  0  0  0  0  0  0
  -12.0160    7.8660    4.7150 O   0  0  0  0  0  0  0  0  0  0  0  0
   -6.8990    7.6510    9.7710 O   0  0  0  0  0  0  0  0  0  0  0  0
   -8.6894    4.0209    4.6352 C   0  0  0  0  0  0  0  0  0  0  0  0
   -9.7708    5.0273    4.3719 C   0  0  0  0  0  0  0  0  0  0  0  0
  -10.9366    4.6286    4.9972 F   0  0  0  0  0  0  0  0  0  0  0  0
   -9.4013    6.2750    4.8400 F   0  0  0  0  0  0  0  0  0  0  0  0
  -10.0008    5.1166    3.0112 F   0  0  0  0  0  0  0  0  0  0  0  0
   -8.4751    2.9458    3.8453 N   0  0  0  0  0  0  0  0  0  0  0  0
   -7.4547    2.2665    4.3452 N   0  0  0  0  0  0  0  0  0  0  0  0
   -7.0117    2.8873    5.4505 C   0  0  0  0  0  0  0  0  0  0  0  0
   -5.9348    2.4091    6.2568 N   0  0  0  0  0  0  0  0  0  0  0  0
  1  3  4  0
  1 14  4  0
  1  2  1  0
  3  4  4  0
  4  5  4  0
  5  6  4  0
  5 22  1  0
  6  7  1  0
  6 14  4  0
  7  8  1  0
  8  9  4  0
  8 12  4  0
  9 10  4  0
 10 11  4  0
 11 12  4  0
 12 13  1  0
 13 14  1  0
 13 15  1  6
 15 16  4  0
 15 20  4  0
 16 17  4  0
 17 18  4  0
 17 21  1  0
 18 19  4  0
 19 20  4  0
 23 24  1  0
 24 25  1  0
 24 26  1  0
 24 27  1  0
 23 28  4  0
 28 29  4  0
 29 30  4  0
 30 31  1  0
  2 23  4  0
  2 30  4  0
M  END
$$$$

     RDKit          3D

 47 54  0  0  0  0  0  0  0  0999 V2000
   -7.6410    4.9930    6.8080 C   0  0  0  0  0  0  0  0  0  1  0  0
   -7.7310    4.0530    5.7140 C   0  0  0  0  0  0  0  0  0  2  0  0
   -6.4520    5.6300    6.8680 N   0  0  0  0  0  0  0  0  0  0  0  0
   -6.2260    6.5240    7.8670 N   0  0  0  0  0  0  0  0  0  0  0  0
   -7.1930    6.7500    8.7820 C   0  0  0  0  0  0  0  0  0  0  0  0
   -8.4240    6.1170    8.7580 C   0  0  0  0  0  0  0  0  0  0  0  0
   -9.3950    6.3570    9.7450 N   0  0  0  0  0  0  0  0  0  0  0  0
  -10.5620    5.6840    9.7600 C   0  0  0  0  0  0  0  0  0  0  0  0
  -11.5770    5.6820   10.5960 N   0  0  0  0  0  0  0  0  0  0  0  0
  -12.4690    4.7490   10.1080 N   0  0  0  0  0  0  0  0  0  0  0  0
  -12.0160    4.1880    8.9920 N   0  0  0  0  0  0  0  0  0  0  0  0
  -10.8400    4.7900    8.7610 N   0  0  0  0  0  0  0  0  0  0  0  0
   -9.9950    4.4790    7.6090 C   0  0  0  0  0  0  0  0  0  0  0  0
   -8.6630    5.2070    7.7200 C   0  0  0  0  0  0  0  0  0  0  0  0
  -10.7490    4.8610    6.3730 C   0  0  0  0  0  0  0  0  0  0  0  0
  -11.0350    6.2020    6.1170 C   0  0  0  0  0  0  0  0  0  0  0  0
  -11.7370    6.5580    4.9650 C   0  0  0  0  0  0  0  0  0  0  0  0
  -12.1550    5.5730    4.0710 C   0  0  0  0  0  0  0  0  0  0  0  0
  -11.8700    4.2310    4.3270 C   0  0  0  0  0  0  0  0  0  0  0  0
  -11.1660    3.8760    5.4790 C   0  0  0  0  0  0  0  0  0  0  0  0
  -12.0160    7.8660    4.7150 O   0  0  0  0  0  0  0  0  0  0  0  0
   -6.8990    7.6510    9.7710 O   0  0  0  0  0  0  0  0  0  0  0  0
   -6.8002    3.0456    5.4570 C   0  0  0  0  0  0  0  0  0  0  0  0
   -6.9434    2.1004    4.4448 C   0  0  0  0  0  0  0  0  0  0  0  0
   -8.1094    2.1085    3.6492 C   0  0  0  0  0  0  0  0  0  0  0  0
   -9.0696    3.0891    3.8364 N   0  0  0  0  0  0  0  0  0  0  0  0
  -10.2501    3.1812    2.9410 C   0  0  0  0  0  0  0  0  0  0  0  0
   -9.8490    3.6116    1.5523 C   0  0  0  0  0  0  0  0  0  0  0  0
   -9.0996    4.7817    1.3567 C   0  0  0  0  0  0  0  0  0  0  0  0
   -8.7342    5.1693    0.0667 C   0  0  0  0  0  0  0  0  0  0  0  0
   -9.1338    4.3905   -1.0208 C   0  0  0  0  0  0  0  0  0  0  0  0
   -9.8692    3.2651   -0.8191 N   0  0  0  0  0  0  0  0  0  0  0  0
  -10.2331    2.8628    0.4280 C   0  0  0  0  0  0  0  0  0  0  0  0
   -8.9170    4.0218    4.8416 C   0  0  0  0  0  0  0  0  0  0  0  0
   -9.7779    4.9321    5.0035 O   0  0  0  0  0  0  0  0  0  0  0  0
   -8.2159    1.0681    2.5500 C   0  0  0  0  0  0  0  0  0  0  0  0
   -7.5614   -0.2377    2.9845 C   0  0  0  0  0  0  0  0  0  0  0  0
   -6.1614   -0.0007    3.3474 N   0  0  0  0  0  0  0  0  0  0  0  0
   -5.1185   -0.8675    2.8593 C   0  0  0  0  0  0  0  0  0  0  0  0
   -4.0040   -0.3732    2.5401 O   0  0  0  0  0  0  0  0  0  0  0  0
   -5.3114   -2.3314    2.7630 C   0  0  0  0  0  0  0  0  0  0  0  0
   -6.4283   -3.2504    3.5993 S   0  0  0  0  0  0  0  0  0  0  0  0
   -5.9734   -4.7450    3.0462 N   0  0  0  0  0  0  0  0  0  0  0  0
   -4.9497   -4.5718    2.2155 N   0  0  0  0  0  0  0  0  0  0  0  0
   -4.5609   -3.2704    2.0408 C   0  0  0  0  0  0  0  0  0  0  0  0
   -3.4122   -2.9211    1.1484 C   0  0  0  0  0  0  0  0  0  0  0  0
   -5.7892    1.1595    4.1702 C   0  0  0  0  0  0  0  0  0  0  0  0
  1  3  4  0
  1 14  4  0
  1  2  1  0
  3  4  4  0
  4  5  4  0
  5  6  4  0
  5 22  1  0
  6  7  1  0
  6 14  4  0
  7  8  1  0
  8  9  4  0
  8 12  4  0
  9 10  4  0
 10 11  4  0
 11 12  4  0
 12 13  1  0
 13 14  1  0
 13 15  1  6
 15 16  4  0
 15 20  4  0
 16 17  4  0
 17 18  4  0
 17 21  1  0
 18 19  4  0
 19 20  4  0
 23 24  4  0
 24 25  4  0
 25 26  4  0
 26 27  1  0
 27 28  1  0
 28 29  4  0
 29 30  4  0
 30 31  4  0
 31 32  4  0
 32 33  4  0
 26 34  4  0
 34 35  2  0
 25 36  1  0
 36 37  1  0
 37 38  1  0
 38 39  1  0
 39 40  2  0
 39 41  1  0
 41 42  4  0
 42 43  4  0
 43 44  4  0
 44 45  4  0
 45 46  1  0
 38 47  1  0
 45 41  4  0
 47 24  1  0
 33 28  4  0
  2 23  4  0
  2 34  4  0
M  END
$$$$

     RDKit          3D

 47 54  0  0  0  0  0  0  0  0999 V2000
   -7.6410    4.9930    6.8080 C   0  0  0  0  0  0  0  0  0  1  0  0
   -7.7310    4.0530    5.7140 C   0  0  0  0  0  0  0  0  0  2  0  0
   -6.4520    5.6300    6.8680 N   0  0  0  0  0  0  0  0  0  0  0  0
   -6.2260    6.5240    7.8670 N   0  0  0  0  0  0  0  0  0  0  0  0
   -7.1930    6.7500    8.7820 C   0  0  0  0  0  0  0  0  0  0  0  0
   -8.4240    6.1170    8.7580 C   0  0  0  0  0  0  0  0  0  0  0  0
   -9.3950    6.3570    9.7450 N   0  0  0  0  0  0  0  0  0  0  0  0
  -10.5620    5.6840    9.7600 C   0  0  0  0  0  0  0  0  0  0  0  0
  -11.5770    5.6820   10.5960 N   0  0  0  0  0  0  0  0  0  0  0  0
  -12.4690    4.7490   10.1080 N   0  0  0  0  0  0  0  0  0  0  0  0
  -12.0160    4.1880    8.9920 N   0  0  0  0  0  0  0  0  0  0  0  0
  -10.8400    4.7900    8.7610 N   0  0  0  0  0  0  0  0  0  0  0  0
   -9.9950    4.4790    7.6090 C   0  0  0  0  0  0  0  0  0  0  0  0
   -8.6630    5.2070    7.7200 C   0  0  0  0  0  0  0  0  0  0  0  0
  -10.7490    4.8610    6.3730 C   0  0  0  0  0  0  0  0  0  0  0  0
  -11.0350    6.2020    6.1170 C   0  0  0  0  0  0  0  0  0  0  0  0
  -11.7370    6.5580    4.9650 C   0  0  0  0  0  0  0  0  0  0  0  0
  -12.1550    5.5730    4.0710 C   0  0  0  0  0  0  0  0  0  0  0  0
  -11.8700    4.2310    4.3270 C   0  0  0  0  0  0  0  0  0  0  0  0
  -11.1660    3.8760    5.4790 C   0  0  0  0  0  0  0  0  0  0  0  0
  -12.0160    7.8660    4.7150 O   0  0  0  0  0  0  0  0  0  0  0  0
   -6.8990    7.6510    9.7710 O   0  0  0  0  0  0  0  0  0  0  0  0
   -6.8151    3.0251    5.4820 C   0  0  0  0  0  0  0  0  0  0  0  0
   -6.9522    2.0805    4.4672 C   0  0  0  0  0  0  0  0  0  0  0  0
   -8.0865    2.1329    3.6194 C   0  0  0  0  0  0  0  0  0  0  0  0
   -9.0732    3.0736    3.8544 N   0  0  0  0  0  0  0  0  0  0  0  0
  -10.3006    3.1106    3.0239 C   0  0  0  0  0  0  0  0  0  0  0  0
  -10.1201    3.8931    1.7403 C   0  0  0  0  0  0  0  0  0  0  0  0
  -11.1472    3.8708    0.7865 C   0  0  0  0  0  0  0  0  0  0  0  0
  -11.0169    4.5841   -0.4059 C   0  0  0  0  0  0  0  0  0  0  0  0
   -9.8583    5.3248   -0.6367 C   0  0  0  0  0  0  0  0  0  0  0  0
   -8.8697    5.3464    0.2946 N   0  0  0  0  0  0  0  0  0  0  0  0
   -8.9699    4.6585    1.4638 C   0  0  0  0  0  0  0  0  0  0  0  0
   -8.9170    4.0173    4.8449 C   0  0  0  0  0  0  0  0  0  0  0  0
   -9.7795    4.9279    4.9958 O   0  0  0  0  0  0  0  0  0  0  0  0
   -8.2390    1.0983    2.5120 C   0  0  0  0  0  0  0  0  0  0  0  0
   -6.9084    0.4705    2.1112 C   0  0  0  0  0  0  0  0  0  0  0  0
   -6.2050    0.0347    3.3143 N   0  0  0  0  0  0  0  0  0  0  0  0
   -5.6182   -1.2749    3.3988 C   0  0  0  0  0  0  0  0  0  0  0  0
   -4.4157   -1.3883    3.7609 O   0  0  0  0  0  0  0  0  0  0  0  0
   -6.4130   -2.4872    3.1117 C   0  0  0  0  0  0  0  0  0  0  0  0
   -8.0772   -2.5905    3.0299 S   0  0  0  0  0  0  0  0  0  0  0  0
   -8.2068   -4.2211    2.7637 N   0  0  0  0  0  0  0  0  0  0  0  0
   -6.9744   -4.7223    2.7380 N   0  0  0  0  0  0  0  0  0  0  0  0
   -5.9735   -3.8070    2.9260 C   0  0  0  0  0  0  0  0  0  0  0  0
   -4.5384   -4.2245    2.9380 C   0  0  0  0  0  0  0  0  0  0  0  0
   -5.8510    1.0559    4.2993 C   0  0  0  0  0  0  0  0  0  0  0  0
  1  3  4  0
  1 14  4  0
  1  2  1  0
  3  4  4  0
  4  5  4  0
  5  6  4  0
  5 22  1  0
  6  7  1  0
  6 14  4  0
  7  8  1  0
  8  9  4  0
  8 12  4  0
  9 10  4  0
 10 11  4  0
 11 12  4  0
 12 13  1  0
 13 14  1  0
 13 15  1  6
 15 16  4  0
 15 20  4  0
 16 17  4  0
 17 18  4  0
 17 21  1  0
 18 19  4  0
 19 20  4  0
 23 24  4  0
 24 25  4  0
 25 26  4  0
 26 27  1  0
 27 28  1  0
 28 29  4  0
 29 30  4  0
 30 31  4  0
 31 32  4  0
 32 33  4  0
 26 34  4  0
 34 35  2  0
 25 36  1  0
 36 37  1  0
 37 38  1  0
 38 39  1  0
 39 40  2  0
 39 41  1  0
 41 42  4  0
 42 43  4  0
 43 44  4  0
 44 45  4  0
 45 46  1  0
 38 47  1  0
 45 41  4  0
 47 24  1  0
 33 28  4  0
  2 23  4  0
  2 34  4  0
M  END
$$$$

     RDKit          3D

 47 54  0  0  0  0  0  0  0  0999 V2000
   -7.6410    4.9930    6.8080 C   0  0  0  0  0  0  0  0  0  1  0  0
   -7.7310    4.0530    5.7140 C   0  0  0  0  0  0  0  0  0  2  0  0
   -6.4520    5.6300    6.8680 N   0  0  0  0  0  0  0  0  0  0  0  0
   -6.2260    6.5240    7.8670 N   0  0  0  0  0  0  0  0  0  0  0  0
   -7.1930    6.7500    8.7820 C   0  0  0  0  0  0  0  0  0  0  0  0
   -8.4240    6.1170    8.7580 C   0  0  0  0  0  0  0  0  0  0  0  0
   -9.3950    6.3570    9.7450 N   0  0  0  0  0  0  0  0  0  0  0  0
  -10.5620    5.6840    9.7600 C   0  0  0  0  0  0  0  0  0  0  0  0
  -11.5770    5.6820   10.5960 N   0  0  0  0  0  0  0  0  0  0  0  0
  -12.4690    4.7490   10.1080 N   0  0  0  0  0  0  0  0  0  0  0  0
  -12.0160    4.1880    8.9920 N   0  0  0  0  0  0  0  0  0  0  0  0
  -10.8400    4.7900    8.7610 N   0  0  0  0  0  0  0  0  0  0  0  0
   -9.9950    4.4790    7.6090 C   0  0  0  0  0  0  0  0  0  0  0  0
   -8.6630    5.2070    7.7200 C   0  0  0  0  0  0  0  0  0  0  0  0
  -10.7490    4.8610    6.3730 C   0  0  0  0  0  0  0  0  0  0  0  0
  -11.0350    6.2020    6.1170 C   0  0  0  0  0  0  0  0  0  0  0  0
  -11.7370    6.5580    4.9650 C   0  0  0  0  0  0  0  0  0  0  0  0
  -12.1550    5.5730    4.0710 C   0  0  0  0  0  0  0  0  0  0  0  0
  -11.8700    4.2310    4.3270 C   0  0  0  0  0  0  0  0  0  0  0  0
  -11.1660    3.8760    5.4790 C   0  0  0  0  0  0  0  0  0  0  0  0
  -12.0160    7.8660    4.7150 O   0  0  0  0  0  0  0  0  0  0  0  0
   -6.8990    7.6510    9.7710 O   0  0  0  0  0  0  0  0  0  0  0  0
   -6.8171    3.0233    5.4850 C   0  0  0  0  0  0  0  0  0  0  0  0
   -6.9482    2.0870    4.4620 C   0  0  0  0  0  0  0  0  0  0  0  0
   -8.0680    2.1556    3.5935 C   0  0  0  0  0  0  0  0  0  0  0  0
   -9.0712    3.0761    3.8488 N   0  0  0  0  0  0  0  0  0  0  0  0
  -10.3599    3.0607    3.1135 C   0  0  0  0  0  0  0  0  0  0  0  0
  -11.4758    2.5781    4.0077 C   0  0  0  0  0  0  0  0  0  0  0  0
  -11.4315    1.2965    4.5769 C   0  0  0  0  0  0  0  0  0  0  0  0
  -12.4680    0.8631    5.4052 C   0  0  0  0  0  0  0  0  0  0  0  0
  -13.5454    1.7145    5.6548 C   0  0  0  0  0  0  0  0  0  0  0  0
  -13.5782    2.9531    5.0955 N   0  0  0  0  0  0  0  0  0  0  0  0
  -12.5804    3.3991    4.2861 C   0  0  0  0  0  0  0  0  0  0  0  0
   -8.9182    4.0131    4.8475 C   0  0  0  0  0  0  0  0  0  0  0  0
   -9.7955    4.9070    5.0156 O   0  0  0  0  0  0  0  0  0  0  0  0
   -8.1686    1.1865    2.4189 C   0  0  0  0  0  0  0  0  0  0  0  0
   -6.8655    0.4487    2.1178 C   0  0  0  0  0  0  0  0  0  0  0  0
   -6.2587    0.0057    3.3681 N   0  0  0  0  0  0  0  0  0  0  0  0
   -5.8020   -1.3470    3.5417 C   0  0  0  0  0  0  0  0  0  0  0  0
   -4.6522   -1.5544    4.0144 O   0  0  0  0  0  0  0  0  0  0  0  0
   -6.6738   -2.4950    3.2163 C   0  0  0  0  0  0  0  0  0  0  0  0
   -8.3365   -2.4706    3.0630 S   0  0  0  0  0  0  0  0  0  0  0  0
   -8.5760   -4.0879    2.7907 N   0  0  0  0  0  0  0  0  0  0  0  0
   -7.3862   -4.6813    2.8203 N   0  0  0  0  0  0  0  0  0  0  0  0
   -6.3281   -3.8437    3.0517 C   0  0  0  0  0  0  0  0  0  0  0  0
   -4.9293   -4.3687    3.1287 C   0  0  0  0  0  0  0  0  0  0  0  0
   -5.8630    1.0462    4.3135 C   0  0  0  0  0  0  0  0  0  0  0  0
  1  3  4  0
  1 14  4  0
  1  2  1  0
  3  4  4  0
  4  5  4  0
  5  6  4  0
  5 22  1  0
  6  7  1  0
  6 14  4  0
  7  8  1  0
  8  9  4  0
  8 12  4  0
  9 10  4  0
 10 11  4  0
 11 12  4  0
 12 13  1  0
 13 14  1  0
 13 15  1  6
 15 16  4  0
 15 20  4  0
 16 17  4  0
 17 18  4  0
 17 21  1  0
 18 19  4  0
 19 20  4  0
 23 24  4  0
 24 25  4  0
 25 26  4  0
 26 27  1  0
 27 28  1  0
 28 29  4  0
 29 30  4  0
 30 31  4  0
 31 32  4  0
 32 33  4  0
 26 34  4  0
 34 35  2  0
 25 36  1  0
 36 37  1  0
 37 38  1  0
 38 39  1  0
 39 40  2  0
 39 41  1  0
 41 42  4  0
 42 43  4  0
 43 44  4  0
 44 45  4  0
 45 46  1  0
 38 47  1  0
 45 41  4  0
 47 24  1  0
 33 28  4  0
  2 23  4  0
  2 34  4  0
M  END
$$$$

     RDKit          3D

 47 54  0  0  0  0  0  0  0  0999 V2000
   -7.6410    4.9930    6.8080 C   0  0  0  0  0  0  0  0  0  1  0  0
   -7.7310    4.0530    5.7140 C   0  0  0  0  0  0  0  0  0  2  0  0
   -6.4520    5.6300    6.8680 N   0  0  0  0  0  0  0  0  0  0  0  0
   -6.2260    6.5240    7.8670 N   0  0  0  0  0  0  0  0  0  0  0  0
   -7.1930    6.7500    8.7820 C   0  0  0  0  0  0  0  0  0  0  0  0
   -8.4240    6.1170    8.7580 C   0  0  0  0  0  0  0  0  0  0  0  0
   -9.3950    6.3570    9.7450 N   0  0  0  0  0  0  0  0  0  0  0  0
  -10.5620    5.6840    9.7600 C   0  0  0  0  0  0  0  0  0  0  0  0
  -11.5770    5.6820   10.5960 N   0  0  0  0  0  0  0  0  0  0  0  0
  -12.4690    4.7490   10.1080 N   0  0  0  0  0  0  0  0  0  0  0  0
  -12.0160    4.1880    8.9920 N   0  0  0  0  0  0  0  0  0  0  0  0
  -10.8400    4.7900    8.7610 N   0  0  0  0  0  0  0  0  0  0  0  0
   -9.9950    4.4790    7.6090 C   0  0  0  0  0  0  0  0  0  0  0  0
   -8.6630    5.2070    7.7200 C   0  0  0  0  0  0  0  0  0  0  0  0
  -10.7490    4.8610    6.3730 C   0  0  0  0  0  0  0  0  0  0  0  0
  -11.0350    6.2020    6.1170 C   0  0  0  0  0  0  0  0  0  0  0  0
  -11.7370    6.5580    4.9650 C   0  0  0  0  0  0  0  0  0  0  0  0
  -12.1550    5.5730    4.0710 C   0  0  0  0  0  0  0  0  0  0  0  0
  -11.8700    4.2310    4.3270 C   0  0  0  0  0  0  0  0  0  0  0  0
  -11.1660    3.8760    5.4790 C   0  0  0  0  0  0  0  0  0  0  0  0
  -12.0160    7.8660    4.7150 O   0  0  0  0  0  0  0  0  0  0  0  0
   -6.8990    7.6510    9.7710 O   0  0  0  0  0  0  0  0  0  0  0  0
   -6.8101    3.0313    5.4744 C   0  0  0  0  0  0  0  0  0  0  0  0
   -6.9393    2.0984    4.4474 C   0  0  0  0  0  0  0  0  0  0  0  0
   -8.0698    2.1562    3.5941 C   0  0  0  0  0  0  0  0  0  0  0  0
   -9.0615    3.0898    3.8373 N   0  0  0  0  0  0  0  0  0  0  0  0
  -10.2839    3.1371    3.0001 C   0  0  0  0  0  0  0  0  0  0  0  0
  -10.1143    3.9809    1.7536 C   0  0  0  0  0  0  0  0  0  0  0  0
  -11.1806    4.0632    0.8459 C   0  0  0  0  0  0  0  0  0  0  0  0
  -11.0616    4.8304   -0.3137 C   0  0  0  0  0  0  0  0  0  0  0  0
   -9.8722    5.5156   -0.5603 C   0  0  0  0  0  0  0  0  0  0  0  0
   -8.8442    5.4332    0.3243 N   0  0  0  0  0  0  0  0  0  0  0  0
   -8.9339    4.6930    1.4616 C   0  0  0  0  0  0  0  0  0  0  0  0
   -8.9130    4.0230    4.8394 C   0  0  0  0  0  0  0  0  0  0  0  0
   -9.7790    4.9298    4.9950 O   0  0  0  0  0  0  0  0  0  0  0  0
   -8.2164    1.1369    2.4690 C   0  0  0  0  0  0  0  0  0  0  0  0
   -6.9013    0.4578    2.0946 C   0  0  0  0  0  0  0  0  0  0  0  0
   -6.2127    0.0492    3.3140 N   0  0  0  0  0  0  0  0  0  0  0  0
   -6.1063   -1.3414    3.6717 C   0  0  0  0  0  0  0  0  0  0  0  0
   -7.0352   -2.1352    3.3622 O   0  0  0  0  0  0  0  0  0  0  0  0
   -4.9548   -1.8635    4.4293 C   0  0  0  0  0  0  0  0  0  0  0  0
   -5.0148   -3.0817    5.5671 S   0  0  0  0  0  0  0  0  0  0  0  0
   -3.3991   -3.1430    5.9330 N   0  0  0  0  0  0  0  0  0  0  0  0
   -2.7797   -2.2419    5.1755 N   0  0  0  0  0  0  0  0  0  0  0  0
   -3.5950   -1.5348    4.3333 C   0  0  0  0  0  0  0  0  0  0  0  0
   -3.0236   -0.5266    3.3869 C   0  0  0  0  0  0  0  0  0  0  0  0
   -5.8144    1.1122    4.2370 C   0  0  0  0  0  0  0  0  0  0  0  0
  1  3  4  0
  1 14  4  0
  1  2  1  0
  3  4  4  0
  4  5  4  0
  5  6  4  0
  5 22  1  0
  6  7  1  0
  6 14  4  0
  7  8  1  0
  8  9  4  0
  8 12  4  0
  9 10  4  0
 10 11  4  0
 11 12  4  0
 12 13  1  0
 13 14  1  0
 13 15  1  6
 15 16  4  0
 15 20  4  0
 16 17  4  0
 17 18  4  0
 17 21  1  0
 18 19  4  0
 19 20  4  0
 23 24  4  0
 24 25  4  0
 25 26  4  0
 26 27  1  0
 27 28  1  0
 28 29  4  0
 29 30  4  0
 30 31  4  0
 31 32  4  0
 32 33  4  0
 26 34  4  0
 34 35  2  0
 25 36  1  0
 36 37  1  0
 37 38  1  0
 38 39  1  0
 39 40  2  0
 39 41  1  0
 41 42  4  0
 42 43  4  0
 43 44  4  0
 44 45  4  0
 45 46  1  0
 38 47  1  0
 45 41  4  0
 47 24  1  0
 33 28  4  0
  2 23  4  0
  2 34  4  0
M  END
$$$$

     RDKit          3D

 30 35  0  0  0  0  0  0  0  0999 V2000
   -7.6410    4.9930    6.8080 C   0  0  0  0  0  0  0  0  0  1  0  0
   -7.7310    4.0530    5.7140 C   0  0  0  0  0  0  0  0  0  2  0  0
   -6.4520    5.6300    6.8680 N   0  0  0  0  0  0  0  0  0  0  0  0
   -6.2260    6.5240    7.8670 N   0  0  0  0  0  0  0  0  0  0  0  0
   -7.1930    6.7500    8.7820 C   0  0  0  0  0  0  0  0  0  0  0  0
   -8.4240    6.1170    8.7580 C   0  0  0  0  0  0  0  0  0  0  0  0
   -9.3950    6.3570    9.7450 N   0  0  0  0  0  0  0  0  0  0  0  0
  -10.5620    5.6840    9.7600 C   0  0  0  0  0  0  0  0  0  0  0  0
  -11.5770    5.6820   10.5960 N   0  0  0  0  0  0  0  0  0  0  0  0
  -12.4690    4.7490   10.1080 N   0  0  0  0  0  0  0  0  0  0  0  0
  -12.0160    4.1880    8.9920 N   0  0  0  0  0  0  0  0  0  0  0  0
  -10.8400    4.7900    8.7610 N   0  0  0  0  0  0  0  0  0  0  0  0
   -9.9950    4.4790    7.6090 C   0  0  0  0  0  0  0  0  0  0  0  0
   -8.6630    5.2070    7.7200 C   0  0  0  0  0  0  0  0  0  0  0  0
  -10.7490    4.8610    6.3730 C   0  0  0  0  0  0  0  0  0  0  0  0
  -11.0350    6.2020    6.1170 C   0  0  0  0  0  0  0  0  0  0  0  0
  -11.7370    6.5580    4.9650 C   0  0  0  0  0  0  0  0  0  0  0  0
  -12.1550    5.5730    4.0710 C   0  0  0  0  0  0  0  0  0  0  0  0
  -11.8700    4.2310    4.3270 C   0  0  0  0  0  0  0  0  0  0  0  0
  -11.1660    3.8760    5.4790 C   0  0  0  0  0  0  0  0  0  0  0  0
  -12.0160    7.8660    4.7150 O   0  0  0  0  0  0  0  0  0  0  0  0
   -6.8990    7.6510    9.7710 O   0  0  0  0  0  0  0  0  0  0  0  0
   -6.9628    2.9013    5.5203 C   0  0  0  0  0  0  0  0  0  0  0  0
   -7.5138    2.0010    4.1990 S   0  0  0  0  0  0  0  0  0  0  0  0
   -8.7904    3.0217    3.8329 C   0  0  0  0  0  0  0  0  0  0  0  0
   -9.7211    2.8994    2.8018 C   0  0  0  0  0  0  0  0  0  0  0  0
  -10.7156    3.8813    2.6854 C   0  0  0  0  0  0  0  0  0  0  0  0
  -10.7450    4.9694    3.5790 C   0  0  0  0  0  0  0  0  0  0  0  0
   -9.7854    5.0813    4.6020 C   0  0  0  0  0  0  0  0  0  0  0  0
   -8.8158    4.0777    4.7326 C   0  0  0  0  0  0  0  0  0  0  0  0
  1  3  4  0
  1 14  4  0
  1  2  1  0
  3  4  4  0
  4  5  4  0
  5  6  4  0
  5 22  1  0
  6  7  1  0
  6 14  4  0
  7  8  1  0
  8  9  4  0
  8 12  4  0
  9 10  4  0
 10 11  4  0
 11 12  4  0
 12 13  1  0
 13 14  1  0
 13 15  1  6
 15 16  4  0
 15 20  4  0
 16 17  4  0
 17 18  4  0
 17 21  1  0
 18 19  4  0
 19 20  4  0
 23 24  4  0
 24 25  4  0
 25 26  4  0
 26 27  4  0
 27 28  4  0
 28 29  4  0
 29 30  4  0
 30 25  4  0
  2 23  4  0
  2 30  4  0
M  END
$$$$

     RDKit          3D

 29 33  0  0  0  0  0  0  0  0999 V2000
   -7.6410    4.9930    6.8080 C   0  0  0  0  0  0  0  0  0  1  0  0
   -7.7310    4.0530    5.7140 C   0  0  0  0  0  0  0  0  0  2  0  0
   -6.4520    5.6300    6.8680 N   0  0  0  0  0  0  0  0  0  0  0  0
   -6.2260    6.5240    7.8670 N   0  0  0  0  0  0  0  0  0  0  0  0
   -7.1930    6.7500    8.7820 C   0  0  0  0  0  0  0  0  0  0  0  0
   -8.4240    6.1170    8.7580 C   0  0  0  0  0  0  0  0  0  0  0  0
   -9.3950    6.3570    9.7450 N   0  0  0  0  0  0  0  0  0  0  0  0
  -10.5620    5.6840    9.7600 C   0  0  0  0  0  0  0  0  0  0  0  0
  -11.5770    5.6820   10.5960 N   0  0  0  0  0  0  0  0  0  0  0  0
  -12.4690    4.7490   10.1080 N   0  0  0  0  0  0  0  0  0  0  0  0
  -12.0160    4.1880    8.9920 N   0  0  0  0  0  0  0  0  0  0  0  0
  -10.8400    4.7900    8.7610 N   0  0  0  0  0  0  0  0  0  0  0  0
   -9.9950    4.4790    7.6090 C   0  0  0  0  0  0  0  0  0  0  0  0
   -8.6630    5.2070    7.7200 C   0  0  0  0  0  0  0  0  0  0  0  0
  -10.7490    4.8610    6.3730 C   0  0  0  0  0  0  0  0  0  0  0  0
  -11.0350    6.2020    6.1170 C   0  0  0  0  0  0  0  0  0  0  0  0
  -11.7370    6.5580    4.9650 C   0  0  0  0  0  0  0  0  0  0  0  0
  -12.1550    5.5730    4.0710 C   0  0  0  0  0  0  0  0  0  0  0  0
  -11.8700    4.2310    4.3270 C   0  0  0  0  0  0  0  0  0  0  0  0
  -11.1660    3.8760    5.4790 C   0  0  0  0  0  0  0  0  0  0  0  0
  -12.0160    7.8660    4.7150 O   0  0  0  0  0  0  0  0  0  0  0  0
   -6.8990    7.6510    9.7710 O   0  0  0  0  0  0  0  0  0  0  0  0
   -6.8694    3.0128    5.5084 N   0  0  0  0  0  0  0  0  0  0  0  0
   -7.1755    2.2298    4.4509 C   0  0  0  0  0  0  0  0  0  0  0  0
   -6.3150    1.0961    3.9881 C   0  0  0  0  0  0  0  0  0  0  0  0
   -5.2872    1.5733    3.0650 N   0  0  0  0  0  0  0  0  0  0  0  0
   -8.5629    2.7640    3.6653 S   0  0  0  0  0  0  0  0  0  0  0  0
   -8.7999    4.0435    4.7313 C   0  0  0  0  0  0  0  0  0  0  0  0
   -9.9157    5.0341    4.6217 C   0  0  0  0  0  0  0  0  0  0  0  0
  1  3  4  0
  1 14  4  0
  1  2  1  0
  3  4  4  0
  4  5  4  0
  5  6  4  0
  5 22  1  0
  6  7  1  0
  6 14  4  0
  7  8  1  0
  8  9  4  0
  8 12  4  0
  9 10  4  0
 10 11  4  0
 11 12  4  0
 12 13  1  0
 13 14  1  0
 13 15  1  6
 15 16  4  0
 15 20  4  0
 16 17  4  0
 17 18  4  0
 17 21  1  0
 18 19  4  0
 19 20  4  0
 23 24  4  0
 24 25  1  0
 25 26  1  0
 24 27  4  0
 27 28  4  0
 28 29  1  0
  2 23  4  0
  2 28  4  0
M  CHG  1  26   1
M  END
$$$$

     RDKit          3D

 36 41  0  0  0  0  0  0  0  0999 V2000
   -7.6410    4.9930    6.8080 C   0  0  0  0  0  0  0  0  0  1  0  0
   -7.7310    4.0530    5.7140 C   0  0  0  0  0  0  0  0  0  2  0  0
   -6.4520    5.6300    6.8680 N   0  0  0  0  0  0  0  0  0  0  0  0
   -6.2260    6.5240    7.8670 N   0  0  0  0  0  0  0  0  0  0  0  0
   -7.1930    6.7500    8.7820 C   0  0  0  0  0  0  0  0  0  0  0  0
   -8.4240    6.1170    8.7580 C   0  0  0  0  0  0  0  0  0  0  0  0
   -9.3950    6.3570    9.7450 N   0  0  0  0  0  0  0  0  0  0  0  0
  -10.5620    5.6840    9.7600 C   0  0  0  0  0  0  0  0  0  0  0  0
  -11.5770    5.6820   10.5960 N   0  0  0  0  0  0  0  0  0  0  0  0
  -12.4690    4.7490   10.1080 N   0  0  0  0  0  0  0  0  0  0  0  0
  -12.0160    4.1880    8.9920 N   0  0  0  0  0  0  0  0  0  0  0  0
  -10.8400    4.7900    8.7610 N   0  0  0  0  0  0  0  0  0  0  0  0
   -9.9950    4.4790    7.6090 C   0  0  0  0  0  0  0  0  0  0  0  0
   -8.6630    5.2070    7.7200 C   0  0  0  0  0  0  0  0  0  0  0  0
  -10.7490    4.8610    6.3730 C   0  0  0  0  0  0  0  0  0  0  0  0
  -11.0350    6.2020    6.1170 C   0  0  0  0  0  0  0  0  0  0  0  0
  -11.7370    6.5580    4.9650 C   0  0  0  0  0  0  0  0  0  0  0  0
  -12.1550    5.5730    4.0710 C   0  0  0  0  0  0  0  0  0  0  0  0
  -11.8700    4.2310    4.3270 C   0  0  0  0  0  0  0  0  0  0  0  0
  -11.1660    3.8760    5.4790 C   0  0  0  0  0  0  0  0  0  0  0  0
  -12.0160    7.8660    4.7150 O   0  0  0  0  0  0  0  0  0  0  0  0
   -6.8990    7.6510    9.7710 O   0  0  0  0  0  0  0  0  0  0  0  0
   -7.0388    2.8171    5.7349 C   0  0  0  0  0  0  0  0  0  0  0  0
   -7.1752    1.8552    4.7327 C   0  0  0  0  0  0  0  0  0  0  0  0
   -8.0578    2.0690    3.6744 C   0  0  0  0  0  0  0  0  0  0  0  0
   -8.7997    3.2499    3.6085 C   0  0  0  0  0  0  0  0  0  0  0  0
   -8.6673    4.2329    4.6028 C   0  0  0  0  0  0  0  0  0  0  0  0
   -9.5543    5.7552    4.4249 S   0  0  0  0  0  0  0  0  0  0  0  0
  -10.1734    5.8555    3.0580 O   0  0  0  0  0  0  0  0  0  0  0  0
  -10.6561    5.8080    5.4448 O   0  0  0  0  0  0  0  0  0  0  0  0
   -8.4900    7.1069    4.6676 N   0  0  0  0  0  0  0  0  0  0  0  0
   -7.5251    7.4604    3.8713 C   0  0  0  0  0  0  0  0  0  0  0  0
   -6.7752    8.5843    4.1972 O   0  0  0  0  0  0  0  0  0  0  0  0
   -7.2224    6.7141    2.5970 C   0  0  0  0  0  0  0  0  0  0  0  0
   -6.2944    5.5202    2.7606 C   0  0  0  0  0  0  0  0  0  0  0  0
   -5.7777    6.7941    2.1196 C   0  0  0  0  0  0  0  0  0  0  0  0
  1  3  4  0
  1 14  4  0
  1  2  1  0
  3  4  4  0
  4  5  4  0
  5  6  4  0
  5 22  1  0
  6  7  1  0
  6 14  4  0
  7  8  1  0
  8  9  4  0
  8 12  4  0
  9 10  4  0
 10 11  4  0
 11 12  4  0
 12 13  1  0
 13 14  1  0
 13 15  1  6
 15 16  4  0
 15 20  4  0
 16 17  4  0
 17 18  4  0
 17 21  1  0
 18 19  4  0
 19 20  4  0
 23 24  4  0
 24 25  4  0
 25 26  4  0
 26 27  4  0
 27 28  1  0
 28 29  2  0
 28 30  2  0
 28 31  1  0
 31 32  2  3
 32 33  1  0
 32 34  1  0
 34 35  1  0
 35 36  1  0
 36 34  1  0
  2 23  4  0
  2 27  4  0
M  CHG  1  33  -1
M  END
$$$$

     RDKit          3D

 43 49  0  0  0  0  0  0  0  0999 V2000
   -7.6410    4.9930    6.8080 C   0  0  0  0  0  0  0  0  0  1  0  0
   -7.7310    4.0530    5.7140 C   0  0  0  0  0  0  0  0  0  2  0  0
   -6.4520    5.6300    6.8680 N   0  0  0  0  0  0  0  0  0  0  0  0
   -6.2260    6.5240    7.8670 N   0  0  0  0  0  0  0  0  0  0  0  0
   -7.1930    6.7500    8.7820 C   0  0  0  0  0  0  0  0  0  0  0  0
   -8.4240    6.1170    8.7580 C   0  0  0  0  0  0  0  0  0  0  0  0
   -9.3950    6.3570    9.7450 N   0  0  0  0  0  0  0  0  0  0  0  0
  -10.5620    5.6840    9.7600 C   0  0  0  0  0  0  0  0  0  0  0  0
  -11.5770    5.6820   10.5960 N   0  0  0  0  0  0  0  0  0  0  0  0
  -12.4690    4.7490   10.1080 N   0  0  0  0  0  0  0  0  0  0  0  0
  -12.0160    4.1880    8.9920 N   0  0  0  0  0  0  0  0  0  0  0  0
  -10.8400    4.7900    8.7610 N   0  0  0  0  0  0  0  0  0  0  0  0
   -9.9950    4.4790    7.6090 C   0  0  0  0  0  0  0  0  0  0  0  0
   -8.6630    5.2070    7.7200 C   0  0  0  0  0  0  0  0  0  0  0  0
  -10.7490    4.8610    6.3730 C   0  0  0  0  0  0  0  0  0  0  0  0
  -11.0350    6.2020    6.1170 C   0  0  0  0  0  0  0  0  0  0  0  0
  -11.7370    6.5580    4.9650 C   0  0  0  0  0  0  0  0  0  0  0  0
  -12.1550    5.5730    4.0710 C   0  0  0  0  0  0  0  0  0  0  0  0
  -11.8700    4.2310    4.3270 C   0  0  0  0  0  0  0  0  0  0  0  0
  -11.1660    3.8760    5.4790 C   0  0  0  0  0  0  0  0  0  0  0  0
  -12.0160    7.8660    4.7150 O   0  0  0  0  0  0  0  0  0  0  0  0
   -6.8990    7.6510    9.7710 O   0  0  0  0  0  0  0  0  0  0  0  0
   -6.7885    3.0467    5.4378 C   0  0  0  0  0  0  0  0  0  0  0  0
   -6.9216    2.1534    4.4638 O   0  0  0  0  0  0  0  0  0  0  0  0
   -7.9894    2.1053    3.6750 C   0  0  0  0  0  0  0  0  0  0  0  0
   -8.0633    1.1351    2.6699 C   0  0  0  0  0  0  0  0  0  0  0  0
   -9.1828    1.0595    1.8340 C   0  0  0  0  0  0  0  0  0  0  0  0
   -9.2045    0.0807    0.8305 O   0  0  0  0  0  0  0  0  0  0  0  0
  -10.3670   -0.4684    0.2762 C   0  0  0  0  0  0  0  0  0  0  0  0
  -11.4465   -0.4890    0.9280 O   0  0  0  0  0  0  0  0  0  0  0  0
  -10.3176   -1.0621   -1.0990 C   0  0  0  0  0  0  0  0  0  0  0  0
   -9.9009   -0.0179   -2.1411 C   0  0  0  0  0  0  0  0  0  0  0  0
  -10.8648    1.1298   -2.1828 C   0  0  0  0  0  0  0  0  0  0  0  0
  -10.5925    2.4380   -1.8438 C   0  0  0  0  0  0  0  0  0  0  0  0
  -11.8014    3.0703   -2.0295 C   0  0  0  0  0  0  0  0  0  0  0  0
  -12.1231    4.7678   -1.7468 Cl  0  0  0  0  0  0  0  0  0  0  0  0
  -12.7236    2.1864   -2.4553 N   0  0  0  0  0  0  0  0  0  0  0  0
  -12.1260    1.0328   -2.5357 O   0  0  0  0  0  0  0  0  0  0  0  0
  -10.2266    1.9896    1.9928 C   0  0  0  0  0  0  0  0  0  0  0  0
  -10.1606    2.9640    2.9925 C   0  0  0  0  0  0  0  0  0  0  0  0
   -9.0448    3.0277    3.8455 C   0  0  0  0  0  0  0  0  0  0  0  0
   -8.9335    3.9910    4.8632 C   0  0  0  0  0  0  0  0  0  0  0  0
   -9.8419    4.8520    5.0268 O   0  0  0  0  0  0  0  0  0  0  0  0
  1  3  4  0
  1 14  4  0
  1  2  1  0
  3  4  4  0
  4  5  4  0
  5  6  4  0
  5 22  1  0
  6  7  1  0
  6 14  4  0
  7  8  1  0
  8  9  4  0
  8 12  4  0
  9 10  4  0
 10 11  4  0
 11 12  4  0
 12 13  1  0
 13 14  1  0
 13 15  1  6
 15 16  4  0
 15 20  4  0
 16 17  4  0
 17 18  4  0
 17 21  1  0
 18 19  4  0
 19 20  4  0
 23 24  4  0
 24 25  4  0
 25 26  4  0
 26 27  4  0
 27 28  1  0
 28 29  1  0
 29 30  2  0
 29 31  1  0
 31 32  1  0
 32 33  1  0
 33 34  4  0
 34 35  4  0
 35 36  1  0
 35 37  4  0
 37 38  4  0
 27 39  4  0
 39 40  4  0
 40 41  4  0
 41 42  4  0
 42 43  2  0
 41 25  4  0
 38 33  4  0
  2 23  4  0
  2 42  4  0
M  END
$$$$

     RDKit          3D

 43 49  0  0  0  0  0  0  0  0999 V2000
   -7.6410    4.9930    6.8080 C   0  0  0  0  0  0  0  0  0  1  0  0
   -7.7310    4.0530    5.7140 C   0  0  0  0  0  0  0  0  0  2  0  0
   -6.4520    5.6300    6.8680 N   0  0  0  0  0  0  0  0  0  0  0  0
   -6.2260    6.5240    7.8670 N   0  0  0  0  0  0  0  0  0  0  0  0
   -7.1930    6.7500    8.7820 C   0  0  0  0  0  0  0  0  0  0  0  0
   -8.4240    6.1170    8.7580 C   0  0  0  0  0  0  0  0  0  0  0  0
   -9.3950    6.3570    9.7450 N   0  0  0  0  0  0  0  0  0  0  0  0
  -10.5620    5.6840    9.7600 C   0  0  0  0  0  0  0  0  0  0  0  0
  -11.5770    5.6820   10.5960 N   0  0  0  0  0  0  0  0  0  0  0  0
  -12.4690    4.7490   10.1080 N   0  0  0  0  0  0  0  0  0  0  0  0
  -12.0160    4.1880    8.9920 N   0  0  0  0  0  0  0  0  0  0  0  0
  -10.8400    4.7900    8.7610 N   0  0  0  0  0  0  0  0  0  0  0  0
   -9.9950    4.4790    7.6090 C   0  0  0  0  0  0  0  0  0  0  0  0
   -8.6630    5.2070    7.7200 C   0  0  0  0  0  0  0  0  0  0  0  0
  -10.7490    4.8610    6.3730 C   0  0  0  0  0  0  0  0  0  0  0  0
  -11.0350    6.2020    6.1170 C   0  0  0  0  0  0  0  0  0  0  0  0
  -11.7370    6.5580    4.9650 C   0  0  0  0  0  0  0  0  0  0  0  0
  -12.1550    5.5730    4.0710 C   0  0  0  0  0  0  0  0  0  0  0  0
  -11.8700    4.2310    4.3270 C   0  0  0  0  0  0  0  0  0  0  0  0
  -11.1660    3.8760    5.4790 C   0  0  0  0  0  0  0  0  0  0  0  0
  -12.0160    7.8660    4.7150 O   0  0  0  0  0  0  0  0  0  0  0  0
   -6.8990    7.6510    9.7710 O   0  0  0  0  0  0  0  0  0  0  0  0
   -6.7880    3.0475    5.4365 C   0  0  0  0  0  0  0  0  0  0  0  0
   -6.9219    2.1533    4.4634 O   0  0  0  0  0  0  0  0  0  0  0  0
   -7.9908    2.1036    3.6764 C   0  0  0  0  0  0  0  0  0  0  0  0
   -8.0657    1.1323    2.6726 C   0  0  0  0  0  0  0  0  0  0  0  0
   -9.1863    1.0543    1.8380 C   0  0  0  0  0  0  0  0  0  0  0  0
   -9.2072    0.0682    0.8403 O   0  0  0  0  0  0  0  0  0  0  0  0
  -10.3614   -0.5168    0.3035 C   0  0  0  0  0  0  0  0  0  0  0  0
  -11.4682   -0.4417    0.9031 O   0  0  0  0  0  0  0  0  0  0  0  0
  -10.2515   -1.3369   -0.9422 C   0  0  0  0  0  0  0  0  0  0  0  0
   -9.8549   -2.7755   -0.6014 C   0  0  0  0  0  0  0  0  0  0  0  0
   -9.7627   -3.6123   -1.8396 C   0  0  0  0  0  0  0  0  0  0  0  0
   -8.8580   -3.4588   -2.8693 C   0  0  0  0  0  0  0  0  0  0  0  0
   -9.1960   -4.4702   -3.7404 C   0  0  0  0  0  0  0  0  0  0  0  0
   -8.4108   -4.8134   -5.2675 Cl  0  0  0  0  0  0  0  0  0  0  0  0
  -10.2330   -5.1741   -3.2491 N   0  0  0  0  0  0  0  0  0  0  0  0
  -10.5456   -4.6318   -2.1078 O   0  0  0  0  0  0  0  0  0  0  0  0
  -10.2298    1.9848    1.9966 C   0  0  0  0  0  0  0  0  0  0  0  0
  -10.1633    2.9597    2.9962 C   0  0  0  0  0  0  0  0  0  0  0  0
   -9.0466    3.0250    3.8479 C   0  0  0  0  0  0  0  0  0  0  0  0
   -8.9347    3.9891    4.8648 C   0  0  0  0  0  0  0  0  0  0  0  0
   -9.8432    4.8503    5.0281 O   0  0  0  0  0  0  0  0  0  0  0  0
  1  3  4  0
  1 14  4  0
  1  2  1  0
  3  4  4  0
  4  5  4  0
  5  6  4  0
  5 22  1  0
  6  7  1  0
  6 14  4  0
  7  8  1  0
  8  9  4  0
  8 12  4  0
  9 10  4  0
 10 11  4  0
 11 12  4  0
 12 13  1  0
 13 14  1  0
 13 15  1  6
 15 16  4  0
 15 20  4  0
 16 17  4  0
 17 18  4  0
 17 21  1  0
 18 19  4  0
 19 20  4  0
 23 24  4  0
 24 25  4  0
 25 26  4  0
 26 27  4  0
 27 28  1  0
 28 29  1  0
 29 30  2  0
 29 31  1  0
 31 32  1  0
 32 33  1  0
 33 34  4  0
 34 35  4  0
 35 36  1  0
 35 37  4  0
 37 38  4  0
 27 39  4  0
 39 40  4  0
 40 41  4  0
 41 42  4  0
 42 43  2  0
 41 25  4  0
 38 33  4  0
  2 23  4  0
  2 42  4  0
M  END
$$$$

     RDKit          3D

 43 49  0  0  0  0  0  0  0  0999 V2000
   -7.6410    4.9930    6.8080 C   0  0  0  0  0  0  0  0  0  1  0  0
   -7.7310    4.0530    5.7140 C   0  0  0  0  0  0  0  0  0  2  0  0
   -6.4520    5.6300    6.8680 N   0  0  0  0  0  0  0  0  0  0  0  0
   -6.2260    6.5240    7.8670 N   0  0  0  0  0  0  0  0  0  0  0  0
   -7.1930    6.7500    8.7820 C   0  0  0  0  0  0  0  0  0  0  0  0
   -8.4240    6.1170    8.7580 C   0  0  0  0  0  0  0  0  0  0  0  0
   -9.3950    6.3570    9.7450 N   0  0  0  0  0  0  0  0  0  0  0  0
  -10.5620    5.6840    9.7600 C   0  0  0  0  0  0  0  0  0  0  0  0
  -11.5770    5.6820   10.5960 N   0  0  0  0  0  0  0  0  0  0  0  0
  -12.4690    4.7490   10.1080 N   0  0  0  0  0  0  0  0  0  0  0  0
  -12.0160    4.1880    8.9920 N   0  0  0  0  0  0  0  0  0  0  0  0
  -10.8400    4.7900    8.7610 N   0  0  0  0  0  0  0  0  0  0  0  0
   -9.9950    4.4790    7.6090 C   0  0  0  0  0  0  0  0  0  0  0  0
   -8.6630    5.2070    7.7200 C   0  0  0  0  0  0  0  0  0  0  0  0
  -10.7490    4.8610    6.3730 C   0  0  0  0  0  0  0  0  0  0  0  0
  -11.0350    6.2020    6.1170 C   0  0  0  0  0  0  0  0  0  0  0  0
  -11.7370    6.5580    4.9650 C   0  0  0  0  0  0  0  0  0  0  0  0
  -12.1550    5.5730    4.0710 C   0  0  0  0  0  0  0  0  0  0  0  0
  -11.8700    4.2310    4.3270 C   0  0  0  0  0  0  0  0  0  0  0  0
  -11.1660    3.8760    5.4790 C   0  0  0  0  0  0  0  0  0  0  0  0
  -12.0160    7.8660    4.7150 O   0  0  0  0  0  0  0  0  0  0  0  0
   -6.8990    7.6510    9.7710 O   0  0  0  0  0  0  0  0  0  0  0  0
   -6.7897    3.0450    5.4399 C   0  0  0  0  0  0  0  0  0  0  0  0
   -6.9227    2.1516    4.4660 O   0  0  0  0  0  0  0  0  0  0  0  0
   -7.9887    2.1055    3.6745 C   0  0  0  0  0  0  0  0  0  0  0  0
   -8.0617    1.1345    2.6697 C   0  0  0  0  0  0  0  0  0  0  0  0
   -9.1789    1.0763    1.8162 C   0  0  0  0  0  0  0  0  0  0  0  0
   -9.2988    0.1131    0.8033 O   0  0  0  0  0  0  0  0  0  0  0  0
   -8.2306   -0.4778    0.1160 C   0  0  0  0  0  0  0  0  0  0  0  0
   -7.0818    0.0425    0.1276 O   0  0  0  0  0  0  0  0  0  0  0  0
   -8.4870   -1.6803   -0.7350 C   0  0  0  0  0  0  0  0  0  0  0  0
   -8.9392   -1.2574   -2.1347 C   0  0  0  0  0  0  0  0  0  0  0  0
   -9.2340   -2.4531   -2.9862 C   0  0  0  0  0  0  0  0  0  0  0  0
   -8.3286   -3.4037   -3.4096 C   0  0  0  0  0  0  0  0  0  0  0  0
   -9.1007   -4.2651   -4.1563 C   0  0  0  0  0  0  0  0  0  0  0  0
   -8.5305   -5.7021   -4.9781 Cl  0  0  0  0  0  0  0  0  0  0  0  0
  -10.3790   -3.8433   -4.1711 N   0  0  0  0  0  0  0  0  0  0  0  0
  -10.4212   -2.7539   -3.4600 O   0  0  0  0  0  0  0  0  0  0  0  0
  -10.2306    1.9807    2.0013 C   0  0  0  0  0  0  0  0  0  0  0  0
  -10.1660    2.9553    3.0010 C   0  0  0  0  0  0  0  0  0  0  0  0
   -9.0440    3.0280    3.8449 C   0  0  0  0  0  0  0  0  0  0  0  0
   -8.9331    3.9911    4.8629 C   0  0  0  0  0  0  0  0  0  0  0  0
   -9.8417    4.8520    5.0264 O   0  0  0  0  0  0  0  0  0  0  0  0
  1  3  4  0
  1 14  4  0
  1  2  1  0
  3  4  4  0
  4  5  4  0
  5  6  4  0
  5 22  1  0
  6  7  1  0
  6 14  4  0
  7  8  1  0
  8  9  4  0
  8 12  4  0
  9 10  4  0
 10 11  4  0
 11 12  4  0
 12 13  1  0
 13 14  1  0
 13 15  1  6
 15 16  4  0
 15 20  4  0
 16 17  4  0
 17 18  4  0
 17 21  1  0
 18 19  4  0
 19 20  4  0
 23 24  4  0
 24 25  4  0
 25 26  4  0
 26 27  4  0
 27 28  1  0
 28 29  1  0
 29 30  2  0
 29 31  1  0
 31 32  1  0
 32 33  1  0
 33 34  4  0
 34 35  4  0
 35 36  1  0
 35 37  4  0
 37 38  4  0
 27 39  4  0
 39 40  4  0
 40 41  4  0
 41 42  4  0
 42 43  2  0
 41 25  4  0
 38 33  4  0
  2 23  4  0
  2 42  4  0
M  END
$$$$

     RDKit          3D

 43 49  0  0  0  0  0  0  0  0999 V2000
   -7.6410    4.9930    6.8080 C   0  0  0  0  0  0  0  0  0  1  0  0
   -7.7310    4.0530    5.7140 C   0  0  0  0  0  0  0  0  0  2  0  0
   -6.4520    5.6300    6.8680 N   0  0  0  0  0  0  0  0  0  0  0  0
   -6.2260    6.5240    7.8670 N   0  0  0  0  0  0  0  0  0  0  0  0
   -7.1930    6.7500    8.7820 C   0  0  0  0  0  0  0  0  0  0  0  0
   -8.4240    6.1170    8.7580 C   0  0  0  0  0  0  0  0  0  0  0  0
   -9.3950    6.3570    9.7450 N   0  0  0  0  0  0  0  0  0  0  0  0
  -10.5620    5.6840    9.7600 C   0  0  0  0  0  0  0  0  0  0  0  0
  -11.5770    5.6820   10.5960 N   0  0  0  0  0  0  0  0  0  0  0  0
  -12.4690    4.7490   10.1080 N   0  0  0  0  0  0  0  0  0  0  0  0
  -12.0160    4.1880    8.9920 N   0  0  0  0  0  0  0  0  0  0  0  0
  -10.8400    4.7900    8.7610 N   0  0  0  0  0  0  0  0  0  0  0  0
   -9.9950    4.4790    7.6090 C   0  0  0  0  0  0  0  0  0  0  0  0
   -8.6630    5.2070    7.7200 C   0  0  0  0  0  0  0  0  0  0  0  0
  -10.7490    4.8610    6.3730 C   0  0  0  0  0  0  0  0  0  0  0  0
  -11.0350    6.2020    6.1170 C   0  0  0  0  0  0  0  0  0  0  0  0
  -11.7370    6.5580    4.9650 C   0  0  0  0  0  0  0  0  0  0  0  0
  -12.1550    5.5730    4.0710 C   0  0  0  0  0  0  0  0  0  0  0  0
  -11.8700    4.2310    4.3270 C   0  0  0  0  0  0  0  0  0  0  0  0
  -11.1660    3.8760    5.4790 C   0  0  0  0  0  0  0  0  0  0  0  0
  -12.0160    7.8660    4.7150 O   0  0  0  0  0  0  0  0  0  0  0  0
   -6.8990    7.6510    9.7710 O   0  0  0  0  0  0  0  0  0  0  0  0
   -6.7891    3.0461    5.4384 C   0  0  0  0  0  0  0  0  0  0  0  0
   -6.9229    2.1522    4.4651 O   0  0  0  0  0  0  0  0  0  0  0  0
   -7.9908    2.1037    3.6764 C   0  0  0  0  0  0  0  0  0  0  0  0
   -8.0648    1.1317    2.6726 C   0  0  0  0  0  0  0  0  0  0  0  0
   -9.1900    1.0629    1.8306 C   0  0  0  0  0  0  0  0  0  0  0  0
   -9.3019    0.1116    0.8060 O   0  0  0  0  0  0  0  0  0  0  0  0
   -8.7351   -1.1694    0.8241 C   0  0  0  0  0  0  0  0  0  0  0  0
   -8.3244   -1.6843    1.8996 O   0  0  0  0  0  0  0  0  0  0  0  0
   -8.7202   -1.9793   -0.4359 C   0  0  0  0  0  0  0  0  0  0  0  0
  -10.1018   -2.5683   -0.7380 C   0  0  0  0  0  0  0  0  0  0  0  0
  -10.5134   -3.5673    0.3007 C   0  0  0  0  0  0  0  0  0  0  0  0
  -11.5985   -3.4698    1.1451 C   0  0  0  0  0  0  0  0  0  0  0  0
  -11.5225   -4.6246    1.8914 C   0  0  0  0  0  0  0  0  0  0  0  0
  -12.6296   -5.0982    3.1623 Cl  0  0  0  0  0  0  0  0  0  0  0  0
  -10.4587   -5.3539    1.5054 N   0  0  0  0  0  0  0  0  0  0  0  0
   -9.8773   -4.6890    0.5495 O   0  0  0  0  0  0  0  0  0  0  0  0
  -10.2211    1.9961    1.9865 C   0  0  0  0  0  0  0  0  0  0  0  0
  -10.1569    2.9695    2.9873 C   0  0  0  0  0  0  0  0  0  0  0  0
   -9.0441    3.0290    3.8443 C   0  0  0  0  0  0  0  0  0  0  0  0
   -8.9328    3.9921    4.8623 C   0  0  0  0  0  0  0  0  0  0  0  0
   -9.8399    4.8549    5.0243 O   0  0  0  0  0  0  0  0  0  0  0  0
  1  3  4  0
  1 14  4  0
  1  2  1  0
  3  4  4  0
  4  5  4  0
  5  6  4  0
  5 22  1  0
  6  7  1  0
  6 14  4  0
  7  8  1  0
  8  9  4  0
  8 12  4  0
  9 10  4  0
 10 11  4  0
 11 12  4  0
 12 13  1  0
 13 14  1  0
 13 15  1  6
 15 16  4  0
 15 20  4  0
 16 17  4  0
 17 18  4  0
 17 21  1  0
 18 19  4  0
 19 20  4  0
 23 24  4  0
 24 25  4  0
 25 26  4  0
 26 27  4  0
 27 28  1  0
 28 29  1  0
 29 30  2  0
 29 31  1  0
 31 32  1  0
 32 33  1  0
 33 34  4  0
 34 35  4  0
 35 36  1  0
 35 37  4  0
 37 38  4  0
 27 39  4  0
 39 40  4  0
 40 41  4  0
 41 42  4  0
 42 43  2  0
 41 25  4  0
 38 33  4  0
  2 23  4  0
  2 42  4  0
M  END
$$$$

     RDKit          3D

 43 49  0  0  0  0  0  0  0  0999 V2000
   -7.6410    4.9930    6.8080 C   0  0  0  0  0  0  0  0  0  1  0  0
   -7.7310    4.0530    5.7140 C   0  0  0  0  0  0  0  0  0  2  0  0
   -6.4520    5.6300    6.8680 N   0  0  0  0  0  0  0  0  0  0  0  0
   -6.2260    6.5240    7.8670 N   0  0  0  0  0  0  0  0  0  0  0  0
   -7.1930    6.7500    8.7820 C   0  0  0  0  0  0  0  0  0  0  0  0
   -8.4240    6.1170    8.7580 C   0  0  0  0  0  0  0  0  0  0  0  0
   -9.3950    6.3570    9.7450 N   0  0  0  0  0  0  0  0  0  0  0  0
  -10.5620    5.6840    9.7600 C   0  0  0  0  0  0  0  0  0  0  0  0
  -11.5770    5.6820   10.5960 N   0  0  0  0  0  0  0  0  0  0  0  0
  -12.4690    4.7490   10.1080 N   0  0  0  0  0  0  0  0  0  0  0  0
  -12.0160    4.1880    8.9920 N   0  0  0  0  0  0  0  0  0  0  0  0
  -10.8400    4.7900    8.7610 N   0  0  0  0  0  0  0  0  0  0  0  0
   -9.9950    4.4790    7.6090 C   0  0  0  0  0  0  0  0  0  0  0  0
   -8.6630    5.2070    7.7200 C   0  0  0  0  0  0  0  0  0  0  0  0
  -10.7490    4.8610    6.3730 C   0  0  0  0  0  0  0  0  0  0  0  0
  -11.0350    6.2020    6.1170 C   0  0  0  0  0  0  0  0  0  0  0  0
  -11.7370    6.5580    4.9650 C   0  0  0  0  0  0  0  0  0  0  0  0
  -12.1550    5.5730    4.0710 C   0  0  0  0  0  0  0  0  0  0  0  0
  -11.8700    4.2310    4.3270 C   0  0  0  0  0  0  0  0  0  0  0  0
  -11.1660    3.8760    5.4790 C   0  0  0  0  0  0  0  0  0  0  0  0
  -12.0160    7.8660    4.7150 O   0  0  0  0  0  0  0  0  0  0  0  0
   -6.8990    7.6510    9.7710 O   0  0  0  0  0  0  0  0  0  0  0  0
   -6.7891    3.0462    5.4383 C   0  0  0  0  0  0  0  0  0  0  0  0
   -6.9228    2.1522    4.4650 O   0  0  0  0  0  0  0  0  0  0  0  0
   -7.9908    2.1036    3.6764 C   0  0  0  0  0  0  0  0  0  0  0  0
   -8.0647    1.1318    2.6725 C   0  0  0  0  0  0  0  0  0  0  0  0
   -9.1898    1.0628    1.8304 C   0  0  0  0  0  0  0  0  0  0  0  0
   -9.3011    0.1123    0.8047 O   0  0  0  0  0  0  0  0  0  0  0  0
   -8.7230   -1.1638    0.8161 C   0  0  0  0  0  0  0  0  0  0  0  0
   -8.3190   -1.6856    1.8908 O   0  0  0  0  0  0  0  0  0  0  0  0
   -8.6898   -1.9607   -0.4489 C   0  0  0  0  0  0  0  0  0  0  0  0
  -10.0038   -2.7253   -0.6337 C   0  0  0  0  0  0  0  0  0  0  0  0
  -10.0100   -3.5316   -1.8986 C   0  0  0  0  0  0  0  0  0  0  0  0
  -11.0472   -4.3235   -2.3413 C   0  0  0  0  0  0  0  0  0  0  0  0
  -10.5703   -4.8404   -3.5252 C   0  0  0  0  0  0  0  0  0  0  0  0
  -11.4299   -5.9369   -4.5854 Cl  0  0  0  0  0  0  0  0  0  0  0  0
   -9.3281   -4.3791   -3.7619 N   0  0  0  0  0  0  0  0  0  0  0  0
   -9.0246   -3.5975   -2.7663 O   0  0  0  0  0  0  0  0  0  0  0  0
  -10.2211    1.9958    1.9868 C   0  0  0  0  0  0  0  0  0  0  0  0
  -10.1570    2.9690    2.9876 C   0  0  0  0  0  0  0  0  0  0  0  0
   -9.0441    3.0288    3.8445 C   0  0  0  0  0  0  0  0  0  0  0  0
   -8.9328    3.9919    4.8625 C   0  0  0  0  0  0  0  0  0  0  0  0
   -9.8402    4.8546    5.0245 O   0  0  0  0  0  0  0  0  0  0  0  0
  1  3  4  0
  1 14  4  0
  1  2  1  0
  3  4  4  0
  4  5  4  0
  5  6  4  0
  5 22  1  0
  6  7  1  0
  6 14  4  0
  7  8  1  0
  8  9  4  0
  8 12  4  0
  9 10  4  0
 10 11  4  0
 11 12  4  0
 12 13  1  0
 13 14  1  0
 13 15  1  6
 15 16  4  0
 15 20  4  0
 16 17  4  0
 17 18  4  0
 17 21  1  0
 18 19  4  0
 19 20  4  0
 23 24  4  0
 24 25  4  0
 25 26  4  0
 26 27  4  0
 27 28  1  0
 28 29  1  0
 29 30  2  0
 29 31  1  0
 31 32  1  0
 32 33  1  0
 33 34  4  0
 34 35  4  0
 35 36  1  0
 35 37  4  0
 37 38  4  0
 27 39  4  0
 39 40  4  0
 40 41  4  0
 41 42  4  0
 42 43  2  0
 41 25  4  0
 38 33  4  0
  2 23  4  0
  2 42  4  0
M  END
$$$$

     RDKit          3D

 40 46  0  0  0  0  0  0  0  0999 V2000
   -7.6410    4.9930    6.8080 C   0  0  0  0  0  0  0  0  0  1  0  0
   -7.7310    4.0530    5.7140 C   0  0  0  0  0  0  0  0  0  2  0  0
   -6.4520    5.6300    6.8680 N   0  0  0  0  0  0  0  0  0  0  0  0
   -6.2260    6.5240    7.8670 N   0  0  0  0  0  0  0  0  0  0  0  0
   -7.1930    6.7500    8.7820 C   0  0  0  0  0  0  0  0  0  0  0  0
   -8.4240    6.1170    8.7580 C   0  0  0  0  0  0  0  0  0  0  0  0
   -9.3950    6.3570    9.7450 N   0  0  0  0  0  0  0  0  0  0  0  0
  -10.5620    5.6840    9.7600 C   0  0  0  0  0  0  0  0  0  0  0  0
  -11.5770    5.6820   10.5960 N   0  0  0  0  0  0  0  0  0  0  0  0
  -12.4690    4.7490   10.1080 N   0  0  0  0  0  0  0  0  0  0  0  0
  -12.0160    4.1880    8.9920 N   0  0  0  0  0  0  0  0  0  0  0  0
  -10.8400    4.7900    8.7610 N   0  0  0  0  0  0  0  0  0  0  0  0
   -9.9950    4.4790    7.6090 C   0  0  0  0  0  0  0  0  0  0  0  0
   -8.6630    5.2070    7.7200 C   0  0  0  0  0  0  0  0  0  0  0  0
  -10.7490    4.8610    6.3730 C   0  0  0  0  0  0  0  0  0  0  0  0
  -11.0350    6.2020    6.1170 C   0  0  0  0  0  0  0  0  0  0  0  0
  -11.7370    6.5580    4.9650 C   0  0  0  0  0  0  0  0  0  0  0  0
  -12.1550    5.5730    4.0710 C   0  0  0  0  0  0  0  0  0  0  0  0
  -11.8700    4.2310    4.3270 C   0  0  0  0  0  0  0  0  0  0  0  0
  -11.1660    3.8760    5.4790 C   0  0  0  0  0  0  0  0  0  0  0  0
  -12.0160    7.8660    4.7150 O   0  0  0  0  0  0  0  0  0  0  0  0
   -6.8990    7.6510    9.7710 O   0  0  0  0  0  0  0  0  0  0  0  0
   -6.8947    2.9415    5.5113 C   0  0  0  0  0  0  0  0  0  0  0  0
   -7.4134    1.9820    4.2210 S   0  0  0  0  0  0  0  0  0  0  0  0
   -8.7570    2.9218    3.8849 C   0  0  0  0  0  0  0  0  0  0  0  0
   -9.6416    2.7277    2.8863 N   0  0  0  0  0  0  0  0  0  0  0  0
  -10.6607    3.6124    2.7103 C   0  0  0  0  0  0  0  0  0  0  0  0
  -11.7777    3.3282    1.3236 S   0  0  0  0  0  0  0  0  0  0  0  0
  -10.7731    4.2696    0.1205 C   0  0  0  0  0  0  0  0  0  0  0  0
   -9.4649    3.5881   -0.1476 C   0  0  0  0  0  0  0  0  0  0  0  0
   -8.2745    4.1529    0.2234 N   0  0  0  0  0  0  0  0  0  0  0  0
   -7.1975    3.4274   -0.0666 N   0  0  0  0  0  0  0  0  0  0  0  0
   -7.7106    2.0360   -0.8112 S   0  0  0  0  0  0  0  0  0  0  0  0
   -9.3457    2.3467   -0.7733 C   0  0  0  0  0  0  0  0  0  0  0  0
  -10.6146    1.3168   -1.4097 Cl  0  0  0  0  0  0  0  0  0  0  0  0
  -10.8005    4.6977    3.5544 N   0  0  0  0  0  0  0  0  0  0  0  0
  -11.9058    5.6495    3.3511 C   0  0  0  0  0  0  0  0  0  0  0  0
   -9.8714    4.9200    4.5490 C   0  0  0  0  0  0  0  0  0  0  0  0
   -9.9328    5.9584    5.2628 O   0  0  0  0  0  0  0  0  0  0  0  0
   -8.8367    3.9932    4.7441 C   0  0  0  0  0  0  0  0  0  0  0  0
  1  3  4  0
  1 14  4  0
  1  2  1  0
  3  4  4  0
  4  5  4  0
  5  6  4  0
  5 22  1  0
  6  7  1  0
  6 14  4  0
  7  8  1  0
  8  9  4  0
  8 12  4  0
  9 10  4  0
 10 11  4  0
 11 12  4  0
 12 13  1  0
 13 14  1  0
 13 15  1  6
 15 16  4  0
 15 20  4  0
 16 17  4  0
 17 18  4  0
 17 21  1  0
 18 19  4  0
 19 20  4  0
 23 24  4  0
 24 25  4  0
 25 26  4  0
 26 27  4  0
 27 28  1  0
 28 29  1  0
 29 30  1  0
 30 31  4  0
 31 32  4  0
 32 33  4  0
 33 34  4  0
 34 35  1  0
 27 36  4  0
 36 37  1  0
 36 38  4  0
 38 39  2  0
 38 40  4  0
 40 25  4  0
 34 30  4  0
  2 23  4  0
  2 40  4  0
M  END
$$$$

     RDKit          3D

 40 46  0  0  0  0  0  0  0  0999 V2000
   -7.6410    4.9930    6.8080 C   0  0  0  0  0  0  0  0  0  1  0  0
   -7.7310    4.0530    5.7140 C   0  0  0  0  0  0  0  0  0  2  0  0
   -6.4520    5.6300    6.8680 N   0  0  0  0  0  0  0  0  0  0  0  0
   -6.2260    6.5240    7.8670 N   0  0  0  0  0  0  0  0  0  0  0  0
   -7.1930    6.7500    8.7820 C   0  0  0  0  0  0  0  0  0  0  0  0
   -8.4240    6.1170    8.7580 C   0  0  0  0  0  0  0  0  0  0  0  0
   -9.3950    6.3570    9.7450 N   0  0  0  0  0  0  0  0  0  0  0  0
  -10.5620    5.6840    9.7600 C   0  0  0  0  0  0  0  0  0  0  0  0
  -11.5770    5.6820   10.5960 N   0  0  0  0  0  0  0  0  0  0  0  0
  -12.4690    4.7490   10.1080 N   0  0  0  0  0  0  0  0  0  0  0  0
  -12.0160    4.1880    8.9920 N   0  0  0  0  0  0  0  0  0  0  0  0
  -10.8400    4.7900    8.7610 N   0  0  0  0  0  0  0  0  0  0  0  0
   -9.9950    4.4790    7.6090 C   0  0  0  0  0  0  0  0  0  0  0  0
   -8.6630    5.2070    7.7200 C   0  0  0  0  0  0  0  0  0  0  0  0
  -10.7490    4.8610    6.3730 C   0  0  0  0  0  0  0  0  0  0  0  0
  -11.0350    6.2020    6.1170 C   0  0  0  0  0  0  0  0  0  0  0  0
  -11.7370    6.5580    4.9650 C   0  0  0  0  0  0  0  0  0  0  0  0
  -12.1550    5.5730    4.0710 C   0  0  0  0  0  0  0  0  0  0  0  0
  -11.8700    4.2310    4.3270 C   0  0  0  0  0  0  0  0  0  0  0  0
  -11.1660    3.8760    5.4790 C   0  0  0  0  0  0  0  0  0  0  0  0
  -12.0160    7.8660    4.7150 O   0  0  0  0  0  0  0  0  0  0  0  0
   -6.8990    7.6510    9.7710 O   0  0  0  0  0  0  0  0  0  0  0  0
   -6.9033    2.9330    5.5211 C   0  0  0  0  0  0  0  0  0  0  0  0
   -7.4248    1.9713    4.2335 S   0  0  0  0  0  0  0  0  0  0  0  0
   -8.7537    2.9257    3.8813 C   0  0  0  0  0  0  0  0  0  0  0  0
   -9.6578    2.7132    2.9042 N   0  0  0  0  0  0  0  0  0  0  0  0
  -10.6842    3.5911    2.7372 C   0  0  0  0  0  0  0  0  0  0  0  0
  -11.9019    3.2154    1.4617 S   0  0  0  0  0  0  0  0  0  0  0  0
  -12.9683    2.2134    2.5579 C   0  0  0  0  0  0  0  0  0  0  0  0
  -12.2817    0.9481    2.9768 C   0  0  0  0  0  0  0  0  0  0  0  0
  -11.9302    0.7225    4.2803 N   0  0  0  0  0  0  0  0  0  0  0  0
  -11.3157   -0.4371    4.5004 N   0  0  0  0  0  0  0  0  0  0  0  0
  -11.1947   -1.2291    3.0473 S   0  0  0  0  0  0  0  0  0  0  0  0
  -11.9396   -0.0811    2.0990 C   0  0  0  0  0  0  0  0  0  0  0  0
  -12.2293   -0.1874    0.3726 Cl  0  0  0  0  0  0  0  0  0  0  0  0
  -10.7772    4.7199    3.5287 N   0  0  0  0  0  0  0  0  0  0  0  0
  -11.8765    5.6757    3.3096 C   0  0  0  0  0  0  0  0  0  0  0  0
   -9.8605    4.9311    4.5377 C   0  0  0  0  0  0  0  0  0  0  0  0
   -9.9318    5.9593    5.2648 O   0  0  0  0  0  0  0  0  0  0  0  0
   -8.8304    3.9999    4.7372 C   0  0  0  0  0  0  0  0  0  0  0  0
  1  3  4  0
  1 14  4  0
  1  2  1  0
  3  4  4  0
  4  5  4  0
  5  6  4  0
  5 22  1  0
  6  7  1  0
  6 14  4  0
  7  8  1  0
  8  9  4  0
  8 12  4  0
  9 10  4  0
 10 11  4  0
 11 12  4  0
 12 13  1  0
 13 14  1  0
 13 15  1  6
 15 16  4  0
 15 20  4  0
 16 17  4  0
 17 18  4  0
 17 21  1  0
 18 19  4  0
 19 20  4  0
 23 24  4  0
 24 25  4  0
 25 26  4  0
 26 27  4  0
 27 28  1  0
 28 29  1  0
 29 30  1  0
 30 31  4  0
 31 32  4  0
 32 33  4  0
 33 34  4  0
 34 35  1  0
 27 36  4  0
 36 37  1  0
 36 38  4  0
 38 39  2  0
 38 40  4  0
 40 25  4  0
 34 30  4  0
  2 23  4  0
  2 40  4  0
M  END
$$$$

     RDKit          3D

 40 46  0  0  0  0  0  0  0  0999 V2000
   -7.6410    4.9930    6.8080 C   0  0  0  0  0  0  0  0  0  1  0  0
   -7.7310    4.0530    5.7140 C   0  0  0  0  0  0  0  0  0  2  0  0
   -6.4520    5.6300    6.8680 N   0  0  0  0  0  0  0  0  0  0  0  0
   -6.2260    6.5240    7.8670 N   0  0  0  0  0  0  0  0  0  0  0  0
   -7.1930    6.7500    8.7820 C   0  0  0  0  0  0  0  0  0  0  0  0
   -8.4240    6.1170    8.7580 C   0  0  0  0  0  0  0  0  0  0  0  0
   -9.3950    6.3570    9.7450 N   0  0  0  0  0  0  0  0  0  0  0  0
  -10.5620    5.6840    9.7600 C   0  0  0  0  0  0  0  0  0  0  0  0
  -11.5770    5.6820   10.5960 N   0  0  0  0  0  0  0  0  0  0  0  0
  -12.4690    4.7490   10.1080 N   0  0  0  0  0  0  0  0  0  0  0  0
  -12.0160    4.1880    8.9920 N   0  0  0  0  0  0  0  0  0  0  0  0
  -10.8400    4.7900    8.7610 N   0  0  0  0  0  0  0  0  0  0  0  0
   -9.9950    4.4790    7.6090 C   0  0  0  0  0  0  0  0  0  0  0  0
   -8.6630    5.2070    7.7200 C   0  0  0  0  0  0  0  0  0  0  0  0
  -10.7490    4.8610    6.3730 C   0  0  0  0  0  0  0  0  0  0  0  0
  -11.0350    6.2020    6.1170 C   0  0  0  0  0  0  0  0  0  0  0  0
  -11.7370    6.5580    4.9650 C   0  0  0  0  0  0  0  0  0  0  0  0
  -12.1550    5.5730    4.0710 C   0  0  0  0  0  0  0  0  0  0  0  0
  -11.8700    4.2310    4.3270 C   0  0  0  0  0  0  0  0  0  0  0  0
  -11.1660    3.8760    5.4790 C   0  0  0  0  0  0  0  0  0  0  0  0
  -12.0160    7.8660    4.7150 O   0  0  0  0  0  0  0  0  0  0  0  0
   -6.8990    7.6510    9.7710 O   0  0  0  0  0  0  0  0  0  0  0  0
   -6.8956    2.9407    5.5125 C   0  0  0  0  0  0  0  0  0  0  0  0
   -7.4158    1.9796    4.2239 S   0  0  0  0  0  0  0  0  0  0  0  0
   -8.7583    2.9206    3.8855 C   0  0  0  0  0  0  0  0  0  0  0  0
   -9.6478    2.7222    2.8913 N   0  0  0  0  0  0  0  0  0  0  0  0
  -10.6715    3.6027    2.7217 C   0  0  0  0  0  0  0  0  0  0  0  0
  -11.8116    3.3021    1.3603 S   0  0  0  0  0  0  0  0  0  0  0  0
  -10.7801    4.1852    0.1452 C   0  0  0  0  0  0  0  0  0  0  0  0
  -11.4746    4.2052   -1.1808 C   0  0  0  0  0  0  0  0  0  0  0  0
  -12.6564    4.8734   -1.3566 N   0  0  0  0  0  0  0  0  0  0  0  0
  -13.1568    4.8100   -2.5879 N   0  0  0  0  0  0  0  0  0  0  0  0
  -12.1180    3.9022   -3.5098 S   0  0  0  0  0  0  0  0  0  0  0  0
  -10.9926    3.5719   -2.3279 C   0  0  0  0  0  0  0  0  0  0  0  0
   -9.5346    2.6165   -2.5251 Cl  0  0  0  0  0  0  0  0  0  0  0  0
  -10.8050    4.6934    3.5598 N   0  0  0  0  0  0  0  0  0  0  0  0
  -11.9135    5.6419    3.3563 C   0  0  0  0  0  0  0  0  0  0  0  0
   -9.8726    4.9188    4.5507 C   0  0  0  0  0  0  0  0  0  0  0  0
   -9.9320    5.9584    5.2626 O   0  0  0  0  0  0  0  0  0  0  0  0
   -8.8371    3.9927    4.7443 C   0  0  0  0  0  0  0  0  0  0  0  0
  1  3  4  0
  1 14  4  0
  1  2  1  0
  3  4  4  0
  4  5  4  0
  5  6  4  0
  5 22  1  0
  6  7  1  0
  6 14  4  0
  7  8  1  0
  8  9  4  0
  8 12  4  0
  9 10  4  0
 10 11  4  0
 11 12  4  0
 12 13  1  0
 13 14  1  0
 13 15  1  6
 15 16  4  0
 15 20  4  0
 16 17  4  0
 17 18  4  0
 17 21  1  0
 18 19  4  0
 19 20  4  0
 23 24  4  0
 24 25  4  0
 25 26  4  0
 26 27  4  0
 27 28  1  0
 28 29  1  0
 29 30  1  0
 30 31  4  0
 31 32  4  0
 32 33  4  0
 33 34  4  0
 34 35  1  0
 27 36  4  0
 36 37  1  0
 36 38  4  0
 38 39  2  0
 38 40  4  0
 40 25  4  0
 34 30  4  0
  2 23  4  0
  2 40  4  0
M  END
$$$$

     RDKit          3D

 40 46  0  0  0  0  0  0  0  0999 V2000
   -7.6410    4.9930    6.8080 C   0  0  0  0  0  0  0  0  0  1  0  0
   -7.7310    4.0530    5.7140 C   0  0  0  0  0  0  0  0  0  2  0  0
   -6.4520    5.6300    6.8680 N   0  0  0  0  0  0  0  0  0  0  0  0
   -6.2260    6.5240    7.8670 N   0  0  0  0  0  0  0  0  0  0  0  0
   -7.1930    6.7500    8.7820 C   0  0  0  0  0  0  0  0  0  0  0  0
   -8.4240    6.1170    8.7580 C   0  0  0  0  0  0  0  0  0  0  0  0
   -9.3950    6.3570    9.7450 N   0  0  0  0  0  0  0  0  0  0  0  0
  -10.5620    5.6840    9.7600 C   0  0  0  0  0  0  0  0  0  0  0  0
  -11.5770    5.6820   10.5960 N   0  0  0  0  0  0  0  0  0  0  0  0
  -12.4690    4.7490   10.1080 N   0  0  0  0  0  0  0  0  0  0  0  0
  -12.0160    4.1880    8.9920 N   0  0  0  0  0  0  0  0  0  0  0  0
  -10.8400    4.7900    8.7610 N   0  0  0  0  0  0  0  0  0  0  0  0
   -9.9950    4.4790    7.6090 C   0  0  0  0  0  0  0  0  0  0  0  0
   -8.6630    5.2070    7.7200 C   0  0  0  0  0  0  0  0  0  0  0  0
  -10.7490    4.8610    6.3730 C   0  0  0  0  0  0  0  0  0  0  0  0
  -11.0350    6.2020    6.1170 C   0  0  0  0  0  0  0  0  0  0  0  0
  -11.7370    6.5580    4.9650 C   0  0  0  0  0  0  0  0  0  0  0  0
  -12.1550    5.5730    4.0710 C   0  0  0  0  0  0  0  0  0  0  0  0
  -11.8700    4.2310    4.3270 C   0  0  0  0  0  0  0  0  0  0  0  0
  -11.1660    3.8760    5.4790 C   0  0  0  0  0  0  0  0  0  0  0  0
  -12.0160    7.8660    4.7150 O   0  0  0  0  0  0  0  0  0  0  0  0
   -6.8990    7.6510    9.7710 O   0  0  0  0  0  0  0  0  0  0  0  0
   -6.8953    2.9409    5.5122 C   0  0  0  0  0  0  0  0  0  0  0  0
   -7.4147    1.9808    4.2226 S   0  0  0  0  0  0  0  0  0  0  0  0
   -8.7573    2.9216    3.8849 C   0  0  0  0  0  0  0  0  0  0  0  0
   -9.6445    2.7251    2.8889 N   0  0  0  0  0  0  0  0  0  0  0  0
  -10.6658    3.6075    2.7153 C   0  0  0  0  0  0  0  0  0  0  0  0
  -11.7994    3.3154    1.3432 S   0  0  0  0  0  0  0  0  0  0  0  0
  -10.7989    4.2477    0.1267 C   0  0  0  0  0  0  0  0  0  0  0  0
   -9.6510    3.4437   -0.4169 C   0  0  0  0  0  0  0  0  0  0  0  0
   -9.4617    2.1193   -0.1211 N   0  0  0  0  0  0  0  0  0  0  0  0
   -8.3968    1.5641   -0.6942 N   0  0  0  0  0  0  0  0  0  0  0  0
   -7.6485    2.7297   -1.6075 S   0  0  0  0  0  0  0  0  0  0  0  0
   -8.6952    3.9814   -1.2772 C   0  0  0  0  0  0  0  0  0  0  0  0
   -8.5868    5.6198   -1.8927 Cl  0  0  0  0  0  0  0  0  0  0  0  0
  -10.8016    4.6962    3.5557 N   0  0  0  0  0  0  0  0  0  0  0  0
  -11.9088    5.6457    3.3499 C   0  0  0  0  0  0  0  0  0  0  0  0
   -9.8715    4.9198    4.5492 C   0  0  0  0  0  0  0  0  0  0  0  0
   -9.9323    5.9583    5.2626 O   0  0  0  0  0  0  0  0  0  0  0  0
   -8.8365    3.9933    4.7438 C   0  0  0  0  0  0  0  0  0  0  0  0
  1  3  4  0
  1 14  4  0
  1  2  1  0
  3  4  4  0
  4  5  4  0
  5  6  4  0
  5 22  1  0
  6  7  1  0
  6 14  4  0
  7  8  1  0
  8  9  4  0
  8 12  4  0
  9 10  4  0
 10 11  4  0
 11 12  4  0
 12 13  1  0
 13 14  1  0
 13 15  1  6
 15 16  4  0
 15 20  4  0
 16 17  4  0
 17 18  4  0
 17 21  1  0
 18 19  4  0
 19 20  4  0
 23 24  4  0
 24 25  4  0
 25 26  4  0
 26 27  4  0
 27 28  1  0
 28 29  1  0
 29 30  1  0
 30 31  4  0
 31 32  4  0
 32 33  4  0
 33 34  4  0
 34 35  1  0
 27 36  4  0
 36 37  1  0
 36 38  4  0
 38 39  2  0
 38 40  4  0
 40 25  4  0
 34 30  4  0
  2 23  4  0
  2 40  4  0
M  END
$$$$

     RDKit          3D

 42 48  0  0  0  0  0  0  0  0999 V2000
   -7.6410    4.9930    6.8080 C   0  0  0  0  0  0  0  0  0  1  0  0
   -7.7310    4.0530    5.7140 C   0  0  0  0  0  0  0  0  0  2  0  0
   -6.4520    5.6300    6.8680 N   0  0  0  0  0  0  0  0  0  0  0  0
   -6.2260    6.5240    7.8670 N   0  0  0  0  0  0  0  0  0  0  0  0
   -7.1930    6.7500    8.7820 C   0  0  0  0  0  0  0  0  0  0  0  0
   -8.4240    6.1170    8.7580 C   0  0  0  0  0  0  0  0  0  0  0  0
   -9.3950    6.3570    9.7450 N   0  0  0  0  0  0  0  0  0  0  0  0
  -10.5620    5.6840    9.7600 C   0  0  0  0  0  0  0  0  0  0  0  0
  -11.5770    5.6820   10.5960 N   0  0  0  0  0  0  0  0  0  0  0  0
  -12.4690    4.7490   10.1080 N   0  0  0  0  0  0  0  0  0  0  0  0
  -12.0160    4.1880    8.9920 N   0  0  0  0  0  0  0  0  0  0  0  0
  -10.8400    4.7900    8.7610 N   0  0  0  0  0  0  0  0  0  0  0  0
   -9.9950    4.4790    7.6090 C   0  0  0  0  0  0  0  0  0  0  0  0
   -8.6630    5.2070    7.7200 C   0  0  0  0  0  0  0  0  0  0  0  0
  -10.7490    4.8610    6.3730 C   0  0  0  0  0  0  0  0  0  0  0  0
  -11.0350    6.2020    6.1170 C   0  0  0  0  0  0  0  0  0  0  0  0
  -11.7370    6.5580    4.9650 C   0  0  0  0  0  0  0  0  0  0  0  0
  -12.1550    5.5730    4.0710 C   0  0  0  0  0  0  0  0  0  0  0  0
  -11.8700    4.2310    4.3270 C   0  0  0  0  0  0  0  0  0  0  0  0
  -11.1660    3.8760    5.4790 C   0  0  0  0  0  0  0  0  0  0  0  0
  -12.0160    7.8660    4.7150 O   0  0  0  0  0  0  0  0  0  0  0  0
   -6.8990    7.6510    9.7710 O   0  0  0  0  0  0  0  0  0  0  0  0
   -6.8582    3.0643    5.4110 N   0  0  0  0  0  0  0  0  0  0  0  0
   -7.3022    2.4082    4.3516 N   0  0  0  0  0  0  0  0  0  0  0  0
   -8.4721    2.9562    3.9864 C   0  0  0  0  0  0  0  0  0  0  0  0
   -9.3065    2.5046    2.6489 S   0  0  0  0  0  0  0  0  0  0  0  0
   -8.8188    3.9661    4.8134 N   0  0  0  0  0  0  0  0  0  0  0  0
   -9.8932    4.9452    4.6142 C   0  0  0  0  0  0  0  0  0  0  0  0
   -9.4483    6.0002    3.6383 C   0  0  0  0  0  0  0  0  0  0  0  0
   -8.4475    6.7097    3.9295 O   0  0  0  0  0  0  0  0  0  0  0  0
  -10.1106    6.1938    2.3742 N   0  0  0  0  0  0  0  0  0  0  0  0
   -9.2980    6.3115    1.1561 C   0  0  0  0  0  0  0  0  0  0  0  0
   -9.9300    7.3173    0.1972 C   0  0  0  0  0  0  0  0  0  0  0  0
  -11.3508    7.0024    0.0233 N   0  0  0  0  0  0  0  0  0  0  0  0
  -11.8933    6.7405   -1.2856 C   0  0  0  0  0  0  0  0  0  0  0  0
  -13.1851    7.1641   -1.6400 C   0  0  0  0  0  0  0  0  0  0  0  0
  -13.6579    6.9030   -2.8870 N   0  0  0  0  0  0  0  0  0  0  0  0
  -12.9050    6.2398   -3.8023 C   0  0  0  0  0  0  0  0  0  0  0  0
  -11.6177    5.8256   -3.4599 C   0  0  0  0  0  0  0  0  0  0  0  0
  -11.1419    6.0865   -2.2146 N   0  0  0  0  0  0  0  0  0  0  0  0
  -12.1762    6.9282    1.2342 C   0  0  0  0  0  0  0  0  0  0  0  0
  -11.5529    5.9468    2.2319 C   0  0  0  0  0  0  0  0  0  0  0  0
  1  3  4  0
  1 14  4  0
  1  2  1  0
  3  4  4  0
  4  5  4  0
  5  6  4  0
  5 22  1  0
  6  7  1  0
  6 14  4  0
  7  8  1  0
  8  9  4  0
  8 12  4  0
  9 10  4  0
 10 11  4  0
 11 12  4  0
 12 13  1  0
 13 14  1  0
 13 15  1  6
 15 16  4  0
 15 20  4  0
 16 17  4  0
 17 18  4  0
 17 21  1  0
 18 19  4  0
 19 20  4  0
 23 24  4  0
 24 25  4  0
 25 26  2  0
 25 27  4  0
 27 28  1  0
 28 29  1  0
 29 30  2  0
 29 31  1  0
 31 32  1  0
 32 33  1  0
 33 34  1  0
 34 35  1  0
 35 36  4  0
 36 37  4  0
 37 38  4  0
 38 39  4  0
 39 40  4  0
 34 41  1  0
 41 42  1  0
 42 31  1  0
 40 35  4  0
  2 23  4  0
  2 27  4  0
M  END
$$$$

     RDKit          3D

 42 48  0  0  0  0  0  0  0  0999 V2000
   -7.6410    4.9930    6.8080 C   0  0  0  0  0  0  0  0  0  1  0  0
   -7.7310    4.0530    5.7140 C   0  0  0  0  0  0  0  0  0  2  0  0
   -6.4520    5.6300    6.8680 N   0  0  0  0  0  0  0  0  0  0  0  0
   -6.2260    6.5240    7.8670 N   0  0  0  0  0  0  0  0  0  0  0  0
   -7.1930    6.7500    8.7820 C   0  0  0  0  0  0  0  0  0  0  0  0
   -8.4240    6.1170    8.7580 C   0  0  0  0  0  0  0  0  0  0  0  0
   -9.3950    6.3570    9.7450 N   0  0  0  0  0  0  0  0  0  0  0  0
  -10.5620    5.6840    9.7600 C   0  0  0  0  0  0  0  0  0  0  0  0
  -11.5770    5.6820   10.5960 N   0  0  0  0  0  0  0  0  0  0  0  0
  -12.4690    4.7490   10.1080 N   0  0  0  0  0  0  0  0  0  0  0  0
  -12.0160    4.1880    8.9920 N   0  0  0  0  0  0  0  0  0  0  0  0
  -10.8400    4.7900    8.7610 N   0  0  0  0  0  0  0  0  0  0  0  0
   -9.9950    4.4790    7.6090 C   0  0  0  0  0  0  0  0  0  0  0  0
   -8.6630    5.2070    7.7200 C   0  0  0  0  0  0  0  0  0  0  0  0
  -10.7490    4.8610    6.3730 C   0  0  0  0  0  0  0  0  0  0  0  0
  -11.0350    6.2020    6.1170 C   0  0  0  0  0  0  0  0  0  0  0  0
  -11.7370    6.5580    4.9650 C   0  0  0  0  0  0  0  0  0  0  0  0
  -12.1550    5.5730    4.0710 C   0  0  0  0  0  0  0  0  0  0  0  0
  -11.8700    4.2310    4.3270 C   0  0  0  0  0  0  0  0  0  0  0  0
  -11.1660    3.8760    5.4790 C   0  0  0  0  0  0  0  0  0  0  0  0
  -12.0160    7.8660    4.7150 O   0  0  0  0  0  0  0  0  0  0  0  0
   -6.8990    7.6510    9.7710 O   0  0  0  0  0  0  0  0  0  0  0  0
   -6.8581    3.0643    5.4109 N   0  0  0  0  0  0  0  0  0  0  0  0
   -7.3019    2.4085    4.3514 N   0  0  0  0  0  0  0  0  0  0  0  0
   -8.4719    2.9565    3.9862 C   0  0  0  0  0  0  0  0  0  0  0  0
   -9.3060    2.5052    2.6483 S   0  0  0  0  0  0  0  0  0  0  0  0
   -8.8186    3.9662    4.8133 N   0  0  0  0  0  0  0  0  0  0  0  0
   -9.8931    4.9453    4.6141 C   0  0  0  0  0  0  0  0  0  0  0  0
   -9.4479    6.0005    3.6385 C   0  0  0  0  0  0  0  0  0  0  0  0
   -8.4491    6.7119    3.9318 O   0  0  0  0  0  0  0  0  0  0  0  0
  -10.1076    6.1920    2.3725 N   0  0  0  0  0  0  0  0  0  0  0  0
   -9.2892    6.3166    1.1573 C   0  0  0  0  0  0  0  0  0  0  0  0
   -9.9321    7.3066    0.1893 C   0  0  0  0  0  0  0  0  0  0  0  0
  -11.3444    6.9577    0.0102 N   0  0  0  0  0  0  0  0  0  0  0  0
  -11.9155    6.7114   -1.2888 C   0  0  0  0  0  0  0  0  0  0  0  0
  -11.2098    6.0040   -2.2761 C   0  0  0  0  0  0  0  0  0  0  0  0
  -11.7900    5.7810   -3.4847 N   0  0  0  0  0  0  0  0  0  0  0  0
  -13.0433    6.2272   -3.7585 C   0  0  0  0  0  0  0  0  0  0  0  0
  -13.7537    6.9193   -2.7776 C   0  0  0  0  0  0  0  0  0  0  0  0
  -13.1770    7.1423   -1.5680 N   0  0  0  0  0  0  0  0  0  0  0  0
  -12.1735    6.9046    1.2168 C   0  0  0  0  0  0  0  0  0  0  0  0
  -11.5496    5.9376    2.2281 C   0  0  0  0  0  0  0  0  0  0  0  0
  1  3  4  0
  1 14  4  0
  1  2  1  0
  3  4  4  0
  4  5  4  0
  5  6  4  0
  5 22  1  0
  6  7  1  0
  6 14  4  0
  7  8  1  0
  8  9  4  0
  8 12  4  0
  9 10  4  0
 10 11  4  0
 11 12  4  0
 12 13  1  0
 13 14  1  0
 13 15  1  6
 15 16  4  0
 15 20  4  0
 16 17  4  0
 17 18  4  0
 17 21  1  0
 18 19  4  0
 19 20  4  0
 23 24  4  0
 24 25  4  0
 25 26  2  0
 25 27  4  0
 27 28  1  0
 28 29  1  0
 29 30  2  0
 29 31  1  0
 31 32  1  0
 32 33  1  0
 33 34  1  0
 34 35  1  0
 35 36  4  0
 36 37  4  0
 37 38  4  0
 38 39  4  0
 39 40  4  0
 34 41  1  0
 41 42  1  0
 42 31  1  0
 40 35  4  0
  2 23  4  0
  2 27  4  0
M  END
$$$$

     RDKit          3D

 41 46  0  0  0  0  0  0  0  0999 V2000
   -7.6410    4.9930    6.8080 C   0  0  0  0  0  0  0  0  0  1  0  0
   -7.7310    4.0530    5.7140 C   0  0  0  0  0  0  0  0  0  2  0  0
   -6.4520    5.6300    6.8680 N   0  0  0  0  0  0  0  0  0  0  0  0
   -6.2260    6.5240    7.8670 N   0  0  0  0  0  0  0  0  0  0  0  0
   -7.1930    6.7500    8.7820 C   0  0  0  0  0  0  0  0  0  0  0  0
   -8.4240    6.1170    8.7580 C   0  0  0  0  0  0  0  0  0  0  0  0
   -9.3950    6.3570    9.7450 N   0  0  0  0  0  0  0  0  0  0  0  0
  -10.5620    5.6840    9.7600 C   0  0  0  0  0  0  0  0  0  0  0  0
  -11.5770    5.6820   10.5960 N   0  0  0  0  0  0  0  0  0  0  0  0
  -12.4690    4.7490   10.1080 N   0  0  0  0  0  0  0  0  0  0  0  0
  -12.0160    4.1880    8.9920 N   0  0  0  0  0  0  0  0  0  0  0  0
  -10.8400    4.7900    8.7610 N   0  0  0  0  0  0  0  0  0  0  0  0
   -9.9950    4.4790    7.6090 C   0  0  0  0  0  0  0  0  0  0  0  0
   -8.6630    5.2070    7.7200 C   0  0  0  0  0  0  0  0  0  0  0  0
  -10.7490    4.8610    6.3730 C   0  0  0  0  0  0  0  0  0  0  0  0
  -11.0350    6.2020    6.1170 C   0  0  0  0  0  0  0  0  0  0  0  0
  -11.7370    6.5580    4.9650 C   0  0  0  0  0  0  0  0  0  0  0  0
  -12.1550    5.5730    4.0710 C   0  0  0  0  0  0  0  0  0  0  0  0
  -11.8700    4.2310    4.3270 C   0  0  0  0  0  0  0  0  0  0  0  0
  -11.1660    3.8760    5.4790 C   0  0  0  0  0  0  0  0  0  0  0  0
  -12.0160    7.8660    4.7150 O   0  0  0  0  0  0  0  0  0  0  0  0
   -6.8990    7.6510    9.7710 O   0  0  0  0  0  0  0  0  0  0  0  0
   -6.7925    3.1947    5.2659 N   0  0  0  0  0  0  0  0  0  0  0  0
   -7.2873    2.4421    4.2913 N   0  0  0  0  0  0  0  0  0  0  0  0
   -8.5754    2.8009    4.1326 C   0  0  0  0  0  0  0  0  0  0  0  0
   -9.6578    2.1073    2.8764 S   0  0  0  0  0  0  0  0  0  0  0  0
  -10.2577    0.6785    3.8634 C   0  0  0  0  0  0  0  0  0  0  0  0
  -11.1241    1.1479    5.0392 C   0  0  0  0  0  0  0  0  0  0  0  0
   -9.1065   -0.2103    4.2937 C   0  0  0  0  0  0  0  0  0  0  0  0
   -8.8751   -0.3894    5.5204 O   0  0  0  0  0  0  0  0  0  0  0  0
   -8.2213   -0.8088    3.3334 N   0  0  0  0  0  0  0  0  0  0  0  0
   -8.5596   -1.0180    1.9535 C   0  0  0  0  0  0  0  0  0  0  0  0
   -9.7268   -1.7217    1.6196 C   0  0  0  0  0  0  0  0  0  0  0  0
  -10.0517   -1.9634    0.2839 C   0  0  0  0  0  0  0  0  0  0  0  0
   -9.2111   -1.5101   -0.7410 C   0  0  0  0  0  0  0  0  0  0  0  0
   -9.5384   -1.8115   -2.1737 C   0  0  0  0  0  0  0  0  0  0  0  0
   -8.0227   -0.8413   -0.4134 C   0  0  0  0  0  0  0  0  0  0  0  0
   -7.6920   -0.5839    0.9281 C   0  0  0  0  0  0  0  0  0  0  0  0
   -6.4130    0.1370    1.2554 C   0  0  0  0  0  0  0  0  0  0  0  0
   -8.9139    3.7799    4.9885 N   0  0  0  0  0  0  0  0  0  0  0  0
  -10.1043    4.5261    4.9908 N   0  0  0  0  0  0  0  0  0  0  0  0
  1  3  4  0
  1 14  4  0
  1  2  1  0
  3  4  4  0
  4  5  4  0
  5  6  4  0
  5 22  1  0
  6  7  1  0
  6 14  4  0
  7  8  1  0
  8  9  4  0
  8 12  4  0
  9 10  4  0
 10 11  4  0
 11 12  4  0
 12 13  1  0
 13 14  1  0
 13 15  1  6
 15 16  4  0
 15 20  4  0
 16 17  4  0
 17 18  4  0
 17 21  1  0
 18 19  4  0
 19 20  4  0
 23 24  4  0
 24 25  4  0
 25 26  1  0
 26 27  1  0
 27 28  1  0
 27 29  1  0
 29 30  2  0
 29 31  1  0
 31 32  1  0
 32 33  4  0
 33 34  4  0
 34 35  4  0
 35 36  1  0
 35 37  4  0
 37 38  4  0
 38 39  1  0
 25 40  4  0
 40 41  1  0
 38 32  4  0
  2 23  4  0
  2 40  4  0
M  END
$$$$

     RDKit          3D

 41 46  0  0  0  0  0  0  0  0999 V2000
   -7.6410    4.9930    6.8080 C   0  0  0  0  0  0  0  0  0  1  0  0
   -7.7310    4.0530    5.7140 C   0  0  0  0  0  0  0  0  0  2  0  0
   -6.4520    5.6300    6.8680 N   0  0  0  0  0  0  0  0  0  0  0  0
   -6.2260    6.5240    7.8670 N   0  0  0  0  0  0  0  0  0  0  0  0
   -7.1930    6.7500    8.7820 C   0  0  0  0  0  0  0  0  0  0  0  0
   -8.4240    6.1170    8.7580 C   0  0  0  0  0  0  0  0  0  0  0  0
   -9.3950    6.3570    9.7450 N   0  0  0  0  0  0  0  0  0  0  0  0
  -10.5620    5.6840    9.7600 C   0  0  0  0  0  0  0  0  0  0  0  0
  -11.5770    5.6820   10.5960 N   0  0  0  0  0  0  0  0  0  0  0  0
  -12.4690    4.7490   10.1080 N   0  0  0  0  0  0  0  0  0  0  0  0
  -12.0160    4.1880    8.9920 N   0  0  0  0  0  0  0  0  0  0  0  0
  -10.8400    4.7900    8.7610 N   0  0  0  0  0  0  0  0  0  0  0  0
   -9.9950    4.4790    7.6090 C   0  0  0  0  0  0  0  0  0  0  0  0
   -8.6630    5.2070    7.7200 C   0  0  0  0  0  0  0  0  0  0  0  0
  -10.7490    4.8610    6.3730 C   0  0  0  0  0  0  0  0  0  0  0  0
  -11.0350    6.2020    6.1170 C   0  0  0  0  0  0  0  0  0  0  0  0
  -11.7370    6.5580    4.9650 C   0  0  0  0  0  0  0  0  0  0  0  0
  -12.1550    5.5730    4.0710 C   0  0  0  0  0  0  0  0  0  0  0  0
  -11.8700    4.2310    4.3270 C   0  0  0  0  0  0  0  0  0  0  0  0
  -11.1660    3.8760    5.4790 C   0  0  0  0  0  0  0  0  0  0  0  0
  -12.0160    7.8660    4.7150 O   0  0  0  0  0  0  0  0  0  0  0  0
   -6.8990    7.6510    9.7710 O   0  0  0  0  0  0  0  0  0  0  0  0
   -6.8136    3.1506    5.3035 N   0  0  0  0  0  0  0  0  0  0  0  0
   -7.3391    2.3355    4.3966 N   0  0  0  0  0  0  0  0  0  0  0  0
   -8.6221    2.7106    4.2305 C   0  0  0  0  0  0  0  0  0  0  0  0
   -9.7818    1.8771    3.1395 S   0  0  0  0  0  0  0  0  0  0  0  0
   -9.3099    2.6946    1.5623 C   0  0  0  0  0  0  0  0  0  0  0  0
   -7.9841    2.1470    1.0294 C   0  0  0  0  0  0  0  0  0  0  0  0
   -9.2938    4.2008    1.6582 C   0  0  0  0  0  0  0  0  0  0  0  0
   -8.3068    4.7843    2.1819 O   0  0  0  0  0  0  0  0  0  0  0  0
  -10.3572    4.9693    1.0738 N   0  0  0  0  0  0  0  0  0  0  0  0
  -10.2543    6.3860    0.8634 C   0  0  0  0  0  0  0  0  0  0  0  0
  -10.0005    7.2396    1.9491 C   0  0  0  0  0  0  0  0  0  0  0  0
   -9.9150    8.6210    1.7587 C   0  0  0  0  0  0  0  0  0  0  0  0
  -10.0958    9.1712    0.4823 C   0  0  0  0  0  0  0  0  0  0  0  0
   -9.9732   10.6524    0.2738 C   0  0  0  0  0  0  0  0  0  0  0  0
  -10.3406    8.3238   -0.6086 C   0  0  0  0  0  0  0  0  0  0  0  0
  -10.4265    6.9317   -0.4277 C   0  0  0  0  0  0  0  0  0  0  0  0
  -10.7208    6.0443   -1.6087 C   0  0  0  0  0  0  0  0  0  0  0  0
   -8.9316    3.7448    5.0293 N   0  0  0  0  0  0  0  0  0  0  0  0
  -10.1339    4.4701    5.0476 N   0  0  0  0  0  0  0  0  0  0  0  0
  1  3  4  0
  1 14  4  0
  1  2  1  0
  3  4  4  0
  4  5  4  0
  5  6  4  0
  5 22  1  0
  6  7  1  0
  6 14  4  0
  7  8  1  0
  8  9  4  0
  8 12  4  0
  9 10  4  0
 10 11  4  0
 11 12  4  0
 12 13  1  0
 13 14  1  0
 13 15  1  6
 15 16  4  0
 15 20  4  0
 16 17  4  0
 17 18  4  0
 17 21  1  0
 18 19  4  0
 19 20  4  0
 23 24  4  0
 24 25  4  0
 25 26  1  0
 26 27  1  0
 27 28  1  0
 27 29  1  0
 29 30  2  0
 29 31  1  0
 31 32  1  0
 32 33  4  0
 33 34  4  0
 34 35  4  0
 35 36  1  0
 35 37  4  0
 37 38  4  0
 38 39  1  0
 25 40  4  0
 40 41  1  0
 38 32  4  0
  2 23  4  0
  2 40  4  0
M  END
$$$$

     RDKit          3D

 40 45  0  0  0  0  0  0  0  0999 V2000
   -7.6410    4.9930    6.8080 C   0  0  0  0  0  0  0  0  0  1  0  0
   -7.7310    4.0530    5.7140 C   0  0  0  0  0  0  0  0  0  2  0  0
   -6.4520    5.6300    6.8680 N   0  0  0  0  0  0  0  0  0  0  0  0
   -6.2260    6.5240    7.8670 N   0  0  0  0  0  0  0  0  0  0  0  0
   -7.1930    6.7500    8.7820 C   0  0  0  0  0  0  0  0  0  0  0  0
   -8.4240    6.1170    8.7580 C   0  0  0  0  0  0  0  0  0  0  0  0
   -9.3950    6.3570    9.7450 N   0  0  0  0  0  0  0  0  0  0  0  0
  -10.5620    5.6840    9.7600 C   0  0  0  0  0  0  0  0  0  0  0  0
  -11.5770    5.6820   10.5960 N   0  0  0  0  0  0  0  0  0  0  0  0
  -12.4690    4.7490   10.1080 N   0  0  0  0  0  0  0  0  0  0  0  0
  -12.0160    4.1880    8.9920 N   0  0  0  0  0  0  0  0  0  0  0  0
  -10.8400    4.7900    8.7610 N   0  0  0  0  0  0  0  0  0  0  0  0
   -9.9950    4.4790    7.6090 C   0  0  0  0  0  0  0  0  0  0  0  0
   -8.6630    5.2070    7.7200 C   0  0  0  0  0  0  0  0  0  0  0  0
  -10.7490    4.8610    6.3730 C   0  0  0  0  0  0  0  0  0  0  0  0
  -11.0350    6.2020    6.1170 C   0  0  0  0  0  0  0  0  0  0  0  0
  -11.7370    6.5580    4.9650 C   0  0  0  0  0  0  0  0  0  0  0  0
  -12.1550    5.5730    4.0710 C   0  0  0  0  0  0  0  0  0  0  0  0
  -11.8700    4.2310    4.3270 C   0  0  0  0  0  0  0  0  0  0  0  0
  -11.1660    3.8760    5.4790 C   0  0  0  0  0  0  0  0  0  0  0  0
  -12.0160    7.8660    4.7150 O   0  0  0  0  0  0  0  0  0  0  0  0
   -6.8990    7.6510    9.7710 O   0  0  0  0  0  0  0  0  0  0  0  0
   -6.8782    3.0330    5.4394 N   0  0  0  0  0  0  0  0  0  0  0  0
   -7.3742    2.4237    4.3413 C   0  0  0  0  0  0  0  0  0  0  0  0
   -6.7838    1.3552    3.6643 C   0  0  0  0  0  0  0  0  0  0  0  0
   -7.4212    0.8775    2.5032 C   0  0  0  0  0  0  0  0  0  0  0  0
   -8.6165    1.4795    2.0430 C   0  0  0  0  0  0  0  0  0  0  0  0
   -9.3170    0.9670    0.8146 C   0  0  0  0  0  0  0  0  0  0  0  0
   -9.1588    2.5601    2.7646 C   0  0  0  0  0  0  0  0  0  0  0  0
   -8.5163    2.9740    3.8936 N   0  0  0  0  0  0  0  0  0  0  0  0
   -8.7985    3.9794    4.7407 C   0  0  0  0  0  0  0  0  0  0  0  0
   -9.9031    4.9849    4.5458 C   0  0  0  0  0  0  0  0  0  0  0  0
   -9.7087    5.7574    3.3032 N   0  0  0  0  0  0  0  0  0  0  0  0
   -8.4552    6.5078    3.1519 C   0  0  0  0  0  0  0  0  0  0  0  0
  -10.8475    6.0455    2.4593 C   0  0  0  0  0  0  0  0  0  0  0  0
  -11.8867    5.3371    2.5585 O   0  0  0  0  0  0  0  0  0  0  0  0
  -10.8713    7.2071    1.4944 C   0  0  0  0  0  0  0  0  0  0  0  0
  -10.8784    6.7883    0.0066 C   0  0  0  0  0  0  0  0  0  0  0  0
   -9.6768    5.9125   -0.3640 C   0  0  0  0  0  0  0  0  0  0  0  0
  -12.1916    6.1030   -0.4010 C   0  0  0  0  0  0  0  0  0  0  0  0
  1  3  4  0
  1 14  4  0
  1  2  1  0
  3  4  4  0
  4  5  4  0
  5  6  4  0
  5 22  1  0
  6  7  1  0
  6 14  4  0
  7  8  1  0
  8  9  4  0
  8 12  4  0
  9 10  4  0
 10 11  4  0
 11 12  4  0
 12 13  1  0
 13 14  1  0
 13 15  1  6
 15 16  4  0
 15 20  4  0
 16 17  4  0
 17 18  4  0
 17 21  1  0
 18 19  4  0
 19 20  4  0
 23 24  4  0
 24 25  4  0
 25 26  4  0
 26 27  4  0
 27 28  1  0
 27 29  4  0
 29 30  4  0
 30 31  4  0
 31 32  1  0
 32 33  1  0
 33 34  1  0
 33 35  1  0
 35 36  2  0
 35 37  1  0
 37 38  1  0
 38 39  1  0
 38 40  1  0
 30 24  4  0
  2 23  4  0
  2 31  4  0
M  END
$$$$

     RDKit          3D

 48 55  0  0  0  0  0  0  0  0999 V2000
   -7.6410    4.9930    6.8080 C   0  0  0  0  0  0  0  0  0  1  0  0
   -7.7310    4.0530    5.7140 C   0  0  0  0  0  0  0  0  0  2  0  0
   -6.4520    5.6300    6.8680 N   0  0  0  0  0  0  0  0  0  0  0  0
   -6.2260    6.5240    7.8670 N   0  0  0  0  0  0  0  0  0  0  0  0
   -7.1930    6.7500    8.7820 C   0  0  0  0  0  0  0  0  0  0  0  0
   -8.4240    6.1170    8.7580 C   0  0  0  0  0  0  0  0  0  0  0  0
   -9.3950    6.3570    9.7450 N   0  0  0  0  0  0  0  0  0  0  0  0
  -10.5620    5.6840    9.7600 C   0  0  0  0  0  0  0  0  0  0  0  0
  -11.5770    5.6820   10.5960 N   0  0  0  0  0  0  0  0  0  0  0  0
  -12.4690    4.7490   10.1080 N   0  0  0  0  0  0  0  0  0  0  0  0
  -12.0160    4.1880    8.9920 N   0  0  0  0  0  0  0  0  0  0  0  0
  -10.8400    4.7900    8.7610 N   0  0  0  0  0  0  0  0  0  0  0  0
   -9.9950    4.4790    7.6090 C   0  0  0  0  0  0  0  0  0  0  0  0
   -8.6630    5.2070    7.7200 C   0  0  0  0  0  0  0  0  0  0  0  0
  -10.7490    4.8610    6.3730 C   0  0  0  0  0  0  0  0  0  0  0  0
  -11.0350    6.2020    6.1170 C   0  0  0  0  0  0  0  0  0  0  0  0
  -11.7370    6.5580    4.9650 C   0  0  0  0  0  0  0  0  0  0  0  0
  -12.1550    5.5730    4.0710 C   0  0  0  0  0  0  0  0  0  0  0  0
  -11.8700    4.2310    4.3270 C   0  0  0  0  0  0  0  0  0  0  0  0
  -11.1660    3.8760    5.4790 C   0  0  0  0  0  0  0  0  0  0  0  0
  -12.0160    7.8660    4.7150 O   0  0  0  0  0  0  0  0  0  0  0  0
   -6.8990    7.6510    9.7710 O   0  0  0  0  0  0  0  0  0  0  0  0
   -6.9143    2.9235    5.5293 C   0  0  0  0  0  0  0  0  0  0  0  0
   -7.4037    1.9987    4.2029 S   0  0  0  0  0  0  0  0  0  0  0  0
   -8.7063    2.9799    3.8265 C   0  0  0  0  0  0  0  0  0  0  0  0
   -9.5672    2.8130    2.8030 N   0  0  0  0  0  0  0  0  0  0  0  0
  -10.5650    3.7179    2.6089 C   0  0  0  0  0  0  0  0  0  0  0  0
  -11.7143    3.4021    1.2549 S   0  0  0  0  0  0  0  0  0  0  0  0
  -12.6589    2.0927    2.1207 C   0  0  0  0  0  0  0  0  0  0  0  0
  -13.5764    2.6854    3.1927 C   0  0  0  0  0  0  0  0  0  0  0  0
  -13.4670    1.3334    1.0983 C   0  0  0  0  0  0  0  0  0  0  0  0
  -14.3823    1.9385    0.4749 O   0  0  0  0  0  0  0  0  0  0  0  0
  -13.2026   -0.0516    0.8038 N   0  0  0  0  0  0  0  0  0  0  0  0
  -12.1427   -0.8754    1.3827 C   0  0  0  0  0  0  0  0  0  0  0  0
  -12.2090   -2.2367    0.6468 C   0  0  0  0  0  0  0  0  0  0  0  0
  -13.2867   -2.1113   -0.3215 N   0  0  0  0  0  0  0  0  0  0  0  0
  -13.8413   -0.8246   -0.1932 C   0  0  0  0  0  0  0  0  0  0  0  0
  -14.8018   -0.4139   -0.8982 O   0  0  0  0  0  0  0  0  0  0  0  0
  -10.6711    4.8332    3.4229 N   0  0  0  0  0  0  0  0  0  0  0  0
  -11.6803    5.8762    3.1322 C   0  0  0  0  0  0  0  0  0  0  0  0
  -11.2500    6.7752    1.9525 C   0  0  0  0  0  0  0  0  0  0  0  0
  -10.1753    7.7879    2.3385 C   0  0  0  0  0  0  0  0  0  0  0  0
  -10.9534    9.0478    2.5475 C   0  0  0  0  0  0  0  0  0  0  0  0
  -12.1526    8.8511    1.6473 C   0  0  0  0  0  0  0  0  0  0  0  0
  -12.3833    7.4717    1.4739 O   0  0  0  0  0  0  0  0  0  0  0  0
   -9.7999    4.9919    4.4825 C   0  0  0  0  0  0  0  0  0  0  0  0
   -9.8883    5.9953    5.2415 O   0  0  0  0  0  0  0  0  0  0  0  0
   -8.7979    4.0352    4.7026 C   0  0  0  0  0  0  0  0  0  0  0  0
  1  3  4  0
  1 14  4  0
  1  2  1  0
  3  4  4  0
  4  5  4  0
  5  6  4  0
  5 22  1  0
  6  7  1  0
  6 14  4  0
  7  8  1  0
  8  9  4  0
  8 12  4  0
  9 10  4  0
 10 11  4  0
 11 12  4  0
 12 13  1  0
 13 14  1  0
 13 15  1  6
 15 16  4  0
 15 20  4  0
 16 17  4  0
 17 18  4  0
 17 21  1  0
 18 19  4  0
 19 20  4  0
 23 24  4  0
 24 25  4  0
 25 26  4  0
 26 27  4  0
 27 28  1  0
 28 29  1  0
 29 30  1  0
 29 31  1  0
 31 32  2  0
 31 33  1  0
 33 34  1  0
 34 35  1  0
 35 36  1  0
 36 37  1  0
 37 38  2  0
 27 39  4  0
 39 40  1  0
 40 41  1  0
 41 42  1  0
 42 43  1  0
 43 44  1  0
 44 45  1  0
 39 46  4  0
 46 47  2  0
 46 48  4  0
 48 25  4  0
 37 33  1  0
 45 41  1  0
  2 23  4  0
  2 48  4  0
M  END
$$$$

     RDKit          3D

 48 55  0  0  0  0  0  0  0  0999 V2000
   -7.6410    4.9930    6.8080 C   0  0  0  0  0  0  0  0  0  1  0  0
   -7.7310    4.0530    5.7140 C   0  0  0  0  0  0  0  0  0  2  0  0
   -6.4520    5.6300    6.8680 N   0  0  0  0  0  0  0  0  0  0  0  0
   -6.2260    6.5240    7.8670 N   0  0  0  0  0  0  0  0  0  0  0  0
   -7.1930    6.7500    8.7820 C   0  0  0  0  0  0  0  0  0  0  0  0
   -8.4240    6.1170    8.7580 C   0  0  0  0  0  0  0  0  0  0  0  0
   -9.3950    6.3570    9.7450 N   0  0  0  0  0  0  0  0  0  0  0  0
  -10.5620    5.6840    9.7600 C   0  0  0  0  0  0  0  0  0  0  0  0
  -11.5770    5.6820   10.5960 N   0  0  0  0  0  0  0  0  0  0  0  0
  -12.4690    4.7490   10.1080 N   0  0  0  0  0  0  0  0  0  0  0  0
  -12.0160    4.1880    8.9920 N   0  0  0  0  0  0  0  0  0  0  0  0
  -10.8400    4.7900    8.7610 N   0  0  0  0  0  0  0  0  0  0  0  0
   -9.9950    4.4790    7.6090 C   0  0  0  0  0  0  0  0  0  0  0  0
   -8.6630    5.2070    7.7200 C   0  0  0  0  0  0  0  0  0  0  0  0
  -10.7490    4.8610    6.3730 C   0  0  0  0  0  0  0  0  0  0  0  0
  -11.0350    6.2020    6.1170 C   0  0  0  0  0  0  0  0  0  0  0  0
  -11.7370    6.5580    4.9650 C   0  0  0  0  0  0  0  0  0  0  0  0
  -12.1550    5.5730    4.0710 C   0  0  0  0  0  0  0  0  0  0  0  0
  -11.8700    4.2310    4.3270 C   0  0  0  0  0  0  0  0  0  0  0  0
  -11.1660    3.8760    5.4790 C   0  0  0  0  0  0  0  0  0  0  0  0
  -12.0160    7.8660    4.7150 O   0  0  0  0  0  0  0  0  0  0  0  0
   -6.8990    7.6510    9.7710 O   0  0  0  0  0  0  0  0  0  0  0  0
   -6.9037    2.9326    5.5202 C   0  0  0  0  0  0  0  0  0  0  0  0
   -7.4175    1.9795    4.2231 S   0  0  0  0  0  0  0  0  0  0  0  0
   -8.7463    2.9346    3.8715 C   0  0  0  0  0  0  0  0  0  0  0  0
   -9.6243    2.7477    2.8664 N   0  0  0  0  0  0  0  0  0  0  0  0
  -10.6325    3.6422    2.6777 C   0  0  0  0  0  0  0  0  0  0  0  0
  -11.7502    3.3468    1.2945 S   0  0  0  0  0  0  0  0  0  0  0  0
  -10.5726    3.9079    0.0085 C   0  0  0  0  0  0  0  0  0  0  0  0
  -11.3456    4.3122   -1.2444 C   0  0  0  0  0  0  0  0  0  0  0  0
   -9.5879    2.8172   -0.3090 C   0  0  0  0  0  0  0  0  0  0  0  0
   -8.3527    3.0313   -0.1808 O   0  0  0  0  0  0  0  0  0  0  0  0
  -10.0395    1.5353   -0.7534 N   0  0  0  0  0  0  0  0  0  0  0  0
  -10.1077    0.3605    0.1107 C   0  0  0  0  0  0  0  0  0  0  0  0
  -10.1378   -0.8641   -0.8379 C   0  0  0  0  0  0  0  0  0  0  0  0
   -9.9867   -0.3270   -2.1827 N   0  0  0  0  0  0  0  0  0  0  0  0
   -9.9127    1.0747   -2.0818 C   0  0  0  0  0  0  0  0  0  0  0  0
   -9.7365    1.8322   -3.0729 O   0  0  0  0  0  0  0  0  0  0  0  0
  -10.7735    4.7296    3.5230 N   0  0  0  0  0  0  0  0  0  0  0  0
  -11.9073    5.6671    3.3705 C   0  0  0  0  0  0  0  0  0  0  0  0
  -11.5659    6.8100    2.4012 C   0  0  0  0  0  0  0  0  0  0  0  0
  -12.7393    7.7584    2.2130 C   0  0  0  0  0  0  0  0  0  0  0  0
  -12.0612    9.0667    1.9587 C   0  0  0  0  0  0  0  0  0  0  0  0
  -10.7409    8.9139    2.6880 C   0  0  0  0  0  0  0  0  0  0  0  0
  -10.4586    7.5449    2.8735 O   0  0  0  0  0  0  0  0  0  0  0  0
   -9.8554    4.9357    4.5331 C   0  0  0  0  0  0  0  0  0  0  0  0
   -9.9296    5.9600    5.2660 O   0  0  0  0  0  0  0  0  0  0  0  0
   -8.8259    4.0047    4.7313 C   0  0  0  0  0  0  0  0  0  0  0  0
  1  3  4  0
  1 14  4  0
  1  2  1  0
  3  4  4  0
  4  5  4  0
  5  6  4  0
  5 22  1  0
  6  7  1  0
  6 14  4  0
  7  8  1  0
  8  9  4  0
  8 12  4  0
  9 10  4  0
 10 11  4  0
 11 12  4  0
 12 13  1  0
 13 14  1  0
 13 15  1  6
 15 16  4  0
 15 20  4  0
 16 17  4  0
 17 18  4  0
 17 21  1  0
 18 19  4  0
 19 20  4  0
 23 24  4  0
 24 25  4  0
 25 26  4  0
 26 27  4  0
 27 28  1  0
 28 29  1  0
 29 30  1  0
 29 31  1  0
 31 32  2  0
 31 33  1  0
 33 34  1  0
 34 35  1  0
 35 36  1  0
 36 37  1  0
 37 38  2  0
 27 39  4  0
 39 40  1  0
 40 41  1  0
 41 42  1  0
 42 43  1  0
 43 44  1  0
 44 45  1  0
 39 46  4  0
 46 47  2  0
 46 48  4  0
 48 25  4  0
 37 33  1  0
 45 41  1  0
  2 23  4  0
  2 48  4  0
M  END
$$$$

     RDKit          3D

 40 46  0  0  0  0  0  0  0  0999 V2000
   -7.6410    4.9930    6.8080 C   0  0  0  0  0  0  0  0  0  1  0  0
   -7.7310    4.0530    5.7140 C   0  0  0  0  0  0  0  0  0  2  0  0
   -6.4520    5.6300    6.8680 N   0  0  0  0  0  0  0  0  0  0  0  0
   -6.2260    6.5240    7.8670 N   0  0  0  0  0  0  0  0  0  0  0  0
   -7.1930    6.7500    8.7820 C   0  0  0  0  0  0  0  0  0  0  0  0
   -8.4240    6.1170    8.7580 C   0  0  0  0  0  0  0  0  0  0  0  0
   -9.3950    6.3570    9.7450 N   0  0  0  0  0  0  0  0  0  0  0  0
  -10.5620    5.6840    9.7600 C   0  0  0  0  0  0  0  0  0  0  0  0
  -11.5770    5.6820   10.5960 N   0  0  0  0  0  0  0  0  0  0  0  0
  -12.4690    4.7490   10.1080 N   0  0  0  0  0  0  0  0  0  0  0  0
  -12.0160    4.1880    8.9920 N   0  0  0  0  0  0  0  0  0  0  0  0
  -10.8400    4.7900    8.7610 N   0  0  0  0  0  0  0  0  0  0  0  0
   -9.9950    4.4790    7.6090 C   0  0  0  0  0  0  0  0  0  0  0  0
   -8.6630    5.2070    7.7200 C   0  0  0  0  0  0  0  0  0  0  0  0
  -10.7490    4.8610    6.3730 C   0  0  0  0  0  0  0  0  0  0  0  0
  -11.0350    6.2020    6.1170 C   0  0  0  0  0  0  0  0  0  0  0  0
  -11.7370    6.5580    4.9650 C   0  0  0  0  0  0  0  0  0  0  0  0
  -12.1550    5.5730    4.0710 C   0  0  0  0  0  0  0  0  0  0  0  0
  -11.8700    4.2310    4.3270 C   0  0  0  0  0  0  0  0  0  0  0  0
  -11.1660    3.8760    5.4790 C   0  0  0  0  0  0  0  0  0  0  0  0
  -12.0160    7.8660    4.7150 O   0  0  0  0  0  0  0  0  0  0  0  0
   -6.8990    7.6510    9.7710 O   0  0  0  0  0  0  0  0  0  0  0  0
   -6.9225    3.0423    5.3525 N   0  0  0  0  0  0  0  0  0  0  0  0
   -7.4583    2.3216    4.3790 N   0  0  0  0  0  0  0  0  0  0  0  0
   -8.6720    2.8462    4.1284 C   0  0  0  0  0  0  0  0  0  0  0  0
   -9.7685    2.2235    2.8522 S   0  0  0  0  0  0  0  0  0  0  0  0
   -8.8200    2.9649    1.4733 C   0  0  0  0  0  0  0  0  0  0  0  0
   -9.7096    3.1538    0.2307 C   0  0  0  0  0  0  0  0  0  0  0  0
   -8.9760    4.0094   -0.8235 C   0  0  0  0  0  0  0  0  0  0  0  0
   -9.8376    4.2026   -2.0790 C   0  0  0  0  0  0  0  0  0  0  0  0
  -10.2508    2.8518   -2.6766 C   0  0  0  0  0  0  0  0  0  0  0  0
  -10.9797    1.9919   -1.6368 C   0  0  0  0  0  0  0  0  0  0  0  0
  -10.1205    1.7951   -0.3809 C   0  0  0  0  0  0  0  0  0  0  0  0
   -8.9422    3.8927    4.9364 N   0  0  0  0  0  0  0  0  0  0  0  0
  -10.1200    4.7714    4.9041 C   0  0  0  0  0  0  0  0  0  0  0  0
  -10.0261    5.8030    3.7687 C   0  0  0  0  0  0  0  0  0  0  0  0
   -8.7876    6.6796    3.8670 C   0  0  0  0  0  0  0  0  0  0  0  0
   -9.2333    7.9365    3.1913 C   0  0  0  0  0  0  0  0  0  0  0  0
  -10.7355    7.9349    3.4203 C   0  0  0  0  0  0  0  0  0  0  0  0
  -11.1598    6.6397    3.7888 O   0  0  0  0  0  0  0  0  0  0  0  0
  1  3  4  0
  1 14  4  0
  1  2  1  0
  3  4  4  0
  4  5  4  0
  5  6  4  0
  5 22  1  0
  6  7  1  0
  6 14  4  0
  7  8  1  0
  8  9  4  0
  8 12  4  0
  9 10  4  0
 10 11  4  0
 11 12  4  0
 12 13  1  0
 13 14  1  0
 13 15  1  6
 15 16  4  0
 15 20  4  0
 16 17  4  0
 17 18  4  0
 17 21  1  0
 18 19  4  0
 19 20  4  0
 23 24  4  0
 24 25  4  0
 25 26  1  0
 26 27  1  0
 27 28  1  0
 28 29  1  0
 29 30  1  0
 30 31  1  0
 31 32  1  0
 32 33  1  0
 25 34  4  0
 34 35  1  0
 35 36  1  0
 36 37  1  0
 37 38  1  0
 38 39  1  0
 39 40  1  0
 40 36  1  0
 33 28  1  0
  2 23  4  0
  2 34  4  0
M  END
$$$$

     RDKit          3D

 44 50  0  0  0  0  0  0  0  0999 V2000
   -7.6410    4.9930    6.8080 C   0  0  0  0  0  0  0  0  0  1  0  0
   -7.7310    4.0530    5.7140 C   0  0  0  0  0  0  0  0  0  2  0  0
   -6.4520    5.6300    6.8680 N   0  0  0  0  0  0  0  0  0  0  0  0
   -6.2260    6.5240    7.8670 N   0  0  0  0  0  0  0  0  0  0  0  0
   -7.1930    6.7500    8.7820 C   0  0  0  0  0  0  0  0  0  0  0  0
   -8.4240    6.1170    8.7580 C   0  0  0  0  0  0  0  0  0  0  0  0
   -9.3950    6.3570    9.7450 N   0  0  0  0  0  0  0  0  0  0  0  0
  -10.5620    5.6840    9.7600 C   0  0  0  0  0  0  0  0  0  0  0  0
  -11.5770    5.6820   10.5960 N   0  0  0  0  0  0  0  0  0  0  0  0
  -12.4690    4.7490   10.1080 N   0  0  0  0  0  0  0  0  0  0  0  0
  -12.0160    4.1880    8.9920 N   0  0  0  0  0  0  0  0  0  0  0  0
  -10.8400    4.7900    8.7610 N   0  0  0  0  0  0  0  0  0  0  0  0
   -9.9950    4.4790    7.6090 C   0  0  0  0  0  0  0  0  0  0  0  0
   -8.6630    5.2070    7.7200 C   0  0  0  0  0  0  0  0  0  0  0  0
  -10.7490    4.8610    6.3730 C   0  0  0  0  0  0  0  0  0  0  0  0
  -11.0350    6.2020    6.1170 C   0  0  0  0  0  0  0  0  0  0  0  0
  -11.7370    6.5580    4.9650 C   0  0  0  0  0  0  0  0  0  0  0  0
  -12.1550    5.5730    4.0710 C   0  0  0  0  0  0  0  0  0  0  0  0
  -11.8700    4.2310    4.3270 C   0  0  0  0  0  0  0  0  0  0  0  0
  -11.1660    3.8760    5.4790 C   0  0  0  0  0  0  0  0  0  0  0  0
  -12.0160    7.8660    4.7150 O   0  0  0  0  0  0  0  0  0  0  0  0
   -6.8990    7.6510    9.7710 O   0  0  0  0  0  0  0  0  0  0  0  0
   -6.7816    3.0821    5.3365 C   0  0  0  0  0  0  0  0  0  0  0  0
   -7.1708    2.1832    4.3491 C   0  0  0  0  0  0  0  0  0  0  0  0
   -6.3347    1.1138    3.7797 C   0  0  0  0  0  0  0  0  0  0  0  0
   -5.1106    1.3335    3.5674 O   0  0  0  0  0  0  0  0  0  0  0  0
   -6.8984   -0.1521    3.4032 N   0  0  0  0  0  0  0  0  0  0  0  0
   -7.9287   -0.8250    4.2045 C   0  0  0  0  0  0  0  0  0  0  0  0
   -7.2798   -1.8713    5.1207 C   0  0  0  0  0  0  0  0  0  0  0  0
   -8.9728   -1.4469    3.2977 C   0  0  0  0  0  0  0  0  0  0  0  0
  -10.3052   -0.9915    3.3390 C   0  0  0  0  0  0  0  0  0  0  0  0
  -11.2753   -1.5626    2.5104 C   0  0  0  0  0  0  0  0  0  0  0  0
  -10.9413   -2.6120    1.6414 C   0  0  0  0  0  0  0  0  0  0  0  0
  -11.9537   -3.1757    0.7936 N   0  0  0  0  0  0  0  0  0  0  0  0
  -12.0138   -4.5641    0.4337 C   0  0  0  0  0  0  0  0  0  0  0  0
  -11.3073   -5.4140    1.0410 O   0  0  0  0  0  0  0  0  0  0  0  0
  -12.9221   -5.0112   -0.6736 C   0  0  0  0  0  0  0  0  0  0  0  0
  -13.7660   -6.2416   -0.3802 C   0  0  0  0  0  0  0  0  0  0  0  0
  -14.4033   -4.8626   -0.3522 C   0  0  0  0  0  0  0  0  0  0  0  0
   -9.6090   -3.0542    1.5814 C   0  0  0  0  0  0  0  0  0  0  0  0
   -8.6330   -2.4761    2.3992 C   0  0  0  0  0  0  0  0  0  0  0  0
   -8.7393    2.5515    3.8647 S   0  0  0  0  0  0  0  0  0  0  0  0
   -8.9516    3.8484    4.9158 C   0  0  0  0  0  0  0  0  0  0  0  0
  -10.1947    4.6802    4.9662 C   0  0  0  0  0  0  0  0  0  0  0  0
  1  3  4  0
  1 14  4  0
  1  2  1  0
  3  4  4  0
  4  5  4  0
  5  6  4  0
  5 22  1  0
  6  7  1  0
  6 14  4  0
  7  8  1  0
  8  9  4  0
  8 12  4  0
  9 10  4  0
 10 11  4  0
 11 12  4  0
 12 13  1  0
 13 14  1  0
 13 15  1  6
 15 16  4  0
 15 20  4  0
 16 17  4  0
 17 18  4  0
 17 21  1  0
 18 19  4  0
 19 20  4  0
 23 24  4  0
 24 25  1  0
 25 26  2  0
 25 27  1  0
 27 28  1  0
 28 29  1  0
 28 30  1  0
 30 31  4  0
 31 32  4  0
 32 33  4  0
 33 34  1  0
 34 35  1  0
 35 36  2  0
 35 37  1  0
 37 38  1  0
 38 39  1  0
 33 40  4  0
 40 41  4  0
 24 42  4  0
 42 43  4  0
 43 44  1  0
 41 30  4  0
 39 37  1  0
  2 23  4  0
  2 43  4  0
M  END
$$$$

     RDKit          3D

 44 50  0  0  0  0  0  0  0  0999 V2000
   -7.6410    4.9930    6.8080 C   0  0  0  0  0  0  0  0  0  1  0  0
   -7.7310    4.0530    5.7140 C   0  0  0  0  0  0  0  0  0  2  0  0
   -6.4520    5.6300    6.8680 N   0  0  0  0  0  0  0  0  0  0  0  0
   -6.2260    6.5240    7.8670 N   0  0  0  0  0  0  0  0  0  0  0  0
   -7.1930    6.7500    8.7820 C   0  0  0  0  0  0  0  0  0  0  0  0
   -8.4240    6.1170    8.7580 C   0  0  0  0  0  0  0  0  0  0  0  0
   -9.3950    6.3570    9.7450 N   0  0  0  0  0  0  0  0  0  0  0  0
  -10.5620    5.6840    9.7600 C   0  0  0  0  0  0  0  0  0  0  0  0
  -11.5770    5.6820   10.5960 N   0  0  0  0  0  0  0  0  0  0  0  0
  -12.4690    4.7490   10.1080 N   0  0  0  0  0  0  0  0  0  0  0  0
  -12.0160    4.1880    8.9920 N   0  0  0  0  0  0  0  0  0  0  0  0
  -10.8400    4.7900    8.7610 N   0  0  0  0  0  0  0  0  0  0  0  0
   -9.9950    4.4790    7.6090 C   0  0  0  0  0  0  0  0  0  0  0  0
   -8.6630    5.2070    7.7200 C   0  0  0  0  0  0  0  0  0  0  0  0
  -10.7490    4.8610    6.3730 C   0  0  0  0  0  0  0  0  0  0  0  0
  -11.0350    6.2020    6.1170 C   0  0  0  0  0  0  0  0  0  0  0  0
  -11.7370    6.5580    4.9650 C   0  0  0  0  0  0  0  0  0  0  0  0
  -12.1550    5.5730    4.0710 C   0  0  0  0  0  0  0  0  0  0  0  0
  -11.8700    4.2310    4.3270 C   0  0  0  0  0  0  0  0  0  0  0  0
  -11.1660    3.8760    5.4790 C   0  0  0  0  0  0  0  0  0  0  0  0
  -12.0160    7.8660    4.7150 O   0  0  0  0  0  0  0  0  0  0  0  0
   -6.8990    7.6510    9.7710 O   0  0  0  0  0  0  0  0  0  0  0  0
   -6.7861    3.0736    5.3542 C   0  0  0  0  0  0  0  0  0  0  0  0
   -7.1362    2.2301    4.3064 C   0  0  0  0  0  0  0  0  0  0  0  0
   -6.2957    1.1683    3.7350 C   0  0  0  0  0  0  0  0  0  0  0  0
   -6.6102    0.6481    2.6320 O   0  0  0  0  0  0  0  0  0  0  0  0
   -5.0882    0.7607    4.3888 N   0  0  0  0  0  0  0  0  0  0  0  0
   -5.0438   -0.2455    5.4592 C   0  0  0  0  0  0  0  0  0  0  0  0
   -6.2563   -0.1795    6.4010 C   0  0  0  0  0  0  0  0  0  0  0  0
   -4.8750   -1.6312    4.8686 C   0  0  0  0  0  0  0  0  0  0  0  0
   -3.6838   -2.3457    5.0816 C   0  0  0  0  0  0  0  0  0  0  0  0
   -3.5089   -3.6156    4.5254 C   0  0  0  0  0  0  0  0  0  0  0  0
   -4.5101   -4.1862    3.7304 C   0  0  0  0  0  0  0  0  0  0  0  0
   -4.3100   -5.4937    3.1713 N   0  0  0  0  0  0  0  0  0  0  0  0
   -4.6861   -5.8679    1.8362 C   0  0  0  0  0  0  0  0  0  0  0  0
   -4.7243   -7.0886    1.5289 O   0  0  0  0  0  0  0  0  0  0  0  0
   -5.0181   -4.8433    0.7863 C   0  0  0  0  0  0  0  0  0  0  0  0
   -3.9320   -3.8086    0.5263 C   0  0  0  0  0  0  0  0  0  0  0  0
   -4.1599   -4.9322   -0.4679 C   0  0  0  0  0  0  0  0  0  0  0  0
   -5.7117   -3.4879    3.5348 C   0  0  0  0  0  0  0  0  0  0  0  0
   -5.8903   -2.2191    4.0928 C   0  0  0  0  0  0  0  0  0  0  0  0
   -8.6727    2.6478    3.7675 S   0  0  0  0  0  0  0  0  0  0  0  0
   -8.9166    3.9006    4.8640 C   0  0  0  0  0  0  0  0  0  0  0  0
  -10.1532    4.7410    4.9093 C   0  0  0  0  0  0  0  0  0  0  0  0
  1  3  4  0
  1 14  4  0
  1  2  1  0
  3  4  4  0
  4  5  4  0
  5  6  4  0
  5 22  1  0
  6  7  1  0
  6 14  4  0
  7  8  1  0
  8  9  4  0
  8 12  4  0
  9 10  4  0
 10 11  4  0
 11 12  4  0
 12 13  1  0
 13 14  1  0
 13 15  1  6
 15 16  4  0
 15 20  4  0
 16 17  4  0
 17 18  4  0
 17 21  1  0
 18 19  4  0
 19 20  4  0
 23 24  4  0
 24 25  1  0
 25 26  2  0
 25 27  1  0
 27 28  1  0
 28 29  1  0
 28 30  1  0
 30 31  4  0
 31 32  4  0
 32 33  4  0
 33 34  1  0
 34 35  1  0
 35 36  2  0
 35 37  1  0
 37 38  1  0
 38 39  1  0
 33 40  4  0
 40 41  4  0
 24 42  4  0
 42 43  4  0
 43 44  1  0
 41 30  4  0
 39 37  1  0
  2 23  4  0
  2 43  4  0
M  END
$$$$

     RDKit          3D

 37 41  0  0  0  0  0  0  0  0999 V2000
   -7.6410    4.9930    6.8080 C   0  0  0  0  0  0  0  0  0  1  0  0
   -7.7310    4.0530    5.7140 C   0  0  0  0  0  0  0  0  0  2  0  0
   -6.4520    5.6300    6.8680 N   0  0  0  0  0  0  0  0  0  0  0  0
   -6.2260    6.5240    7.8670 N   0  0  0  0  0  0  0  0  0  0  0  0
   -7.1930    6.7500    8.7820 C   0  0  0  0  0  0  0  0  0  0  0  0
   -8.4240    6.1170    8.7580 C   0  0  0  0  0  0  0  0  0  0  0  0
   -9.3950    6.3570    9.7450 N   0  0  0  0  0  0  0  0  0  0  0  0
  -10.5620    5.6840    9.7600 C   0  0  0  0  0  0  0  0  0  0  0  0
  -11.5770    5.6820   10.5960 N   0  0  0  0  0  0  0  0  0  0  0  0
  -12.4690    4.7490   10.1080 N   0  0  0  0  0  0  0  0  0  0  0  0
  -12.0160    4.1880    8.9920 N   0  0  0  0  0  0  0  0  0  0  0  0
  -10.8400    4.7900    8.7610 N   0  0  0  0  0  0  0  0  0  0  0  0
   -9.9950    4.4790    7.6090 C   0  0  0  0  0  0  0  0  0  0  0  0
   -8.6630    5.2070    7.7200 C   0  0  0  0  0  0  0  0  0  0  0  0
  -10.7490    4.8610    6.3730 C   0  0  0  0  0  0  0  0  0  0  0  0
  -11.0350    6.2020    6.1170 C   0  0  0  0  0  0  0  0  0  0  0  0
  -11.7370    6.5580    4.9650 C   0  0  0  0  0  0  0  0  0  0  0  0
  -12.1550    5.5730    4.0710 C   0  0  0  0  0  0  0  0  0  0  0  0
  -11.8700    4.2310    4.3270 C   0  0  0  0  0  0  0  0  0  0  0  0
  -11.1660    3.8760    5.4790 C   0  0  0  0  0  0  0  0  0  0  0  0
  -12.0160    7.8660    4.7150 O   0  0  0  0  0  0  0  0  0  0  0  0
   -6.8990    7.6510    9.7710 O   0  0  0  0  0  0  0  0  0  0  0  0
   -6.8811    3.0339    5.4416 N   0  0  0  0  0  0  0  0  0  0  0  0
   -7.2794    2.4334    4.3323 N   0  0  0  0  0  0  0  0  0  0  0  0
   -8.3925    3.0462    3.9028 C   0  0  0  0  0  0  0  0  0  0  0  0
   -9.1506    2.6666    2.4990 S   0  0  0  0  0  0  0  0  0  0  0  0
   -8.7483    4.0513    4.7367 N   0  0  0  0  0  0  0  0  0  0  0  0
   -9.8213    5.0356    4.5540 C   0  0  0  0  0  0  0  0  0  0  0  0
   -9.2694    6.3455    4.0635 C   0  0  0  0  0  0  0  0  0  0  0  0
   -8.8282    7.1710    4.9093 O   0  0  0  0  0  0  0  0  0  0  0  0
   -9.2676    6.6856    2.6628 N   0  0  0  0  0  0  0  0  0  0  0  0
  -10.5389    6.6973    1.9376 C   0  0  0  0  0  0  0  0  0  0  0  0
   -8.0756    7.2348    1.9786 C   0  0  0  0  0  0  0  0  0  0  0  0
   -7.5946    8.5469    2.6275 C   0  0  0  0  0  0  0  0  0  0  0  0
   -6.9611    6.1550    1.7951 C   0  0  0  0  0  0  0  0  0  0  0  0
   -6.0896    5.9227    3.0431 C   0  0  0  0  0  0  0  0  0  0  0  0
   -6.0509    6.4859    0.6001 C   0  0  0  0  0  0  0  0  0  0  0  0
  1  3  4  0
  1 14  4  0
  1  2  1  0
  3  4  4  0
  4  5  4  0
  5  6  4  0
  5 22  1  0
  6  7  1  0
  6 14  4  0
  7  8  1  0
  8  9  4  0
  8 12  4  0
  9 10  4  0
 10 11  4  0
 11 12  4  0
 12 13  1  0
 13 14  1  0
 13 15  1  6
 15 16  4  0
 15 20  4  0
 16 17  4  0
 17 18  4  0
 17 21  1  0
 18 19  4  0
 19 20  4  0
 23 24  4  0
 24 25  4  0
 25 26  2  0
 25 27  4  0
 27 28  1  0
 28 29  1  0
 29 30  2  0
 29 31  1  0
 31 32  1  0
 31 33  1  0
 33 34  1  0
 33 35  1  0
 35 36  1  0
 35 37  1  0
  2 23  4  0
  2 27  4  0
M  END
$$$$

     RDKit          3D

 27 31  0  0  0  0  0  0  0  0999 V2000
   -7.6410    4.9930    6.8080 C   0  0  0  0  0  0  0  0  0  1  0  0
   -7.7310    4.0530    5.7140 C   0  0  0  0  0  0  0  0  0  2  0  0
   -6.4520    5.6300    6.8680 N   0  0  0  0  0  0  0  0  0  0  0  0
   -6.2260    6.5240    7.8670 N   0  0  0  0  0  0  0  0  0  0  0  0
   -7.1930    6.7500    8.7820 C   0  0  0  0  0  0  0  0  0  0  0  0
   -8.4240    6.1170    8.7580 C   0  0  0  0  0  0  0  0  0  0  0  0
   -9.3950    6.3570    9.7450 N   0  0  0  0  0  0  0  0  0  0  0  0
  -10.5620    5.6840    9.7600 C   0  0  0  0  0  0  0  0  0  0  0  0
  -11.5770    5.6820   10.5960 N   0  0  0  0  0  0  0  0  0  0  0  0
  -12.4690    4.7490   10.1080 N   0  0  0  0  0  0  0  0  0  0  0  0
  -12.0160    4.1880    8.9920 N   0  0  0  0  0  0  0  0  0  0  0  0
  -10.8400    4.7900    8.7610 N   0  0  0  0  0  0  0  0  0  0  0  0
   -9.9950    4.4790    7.6090 C   0  0  0  0  0  0  0  0  0  0  0  0
   -8.6630    5.2070    7.7200 C   0  0  0  0  0  0  0  0  0  0  0  0
  -10.7490    4.8610    6.3730 C   0  0  0  0  0  0  0  0  0  0  0  0
  -11.0350    6.2020    6.1170 C   0  0  0  0  0  0  0  0  0  0  0  0
  -11.7370    6.5580    4.9650 C   0  0  0  0  0  0  0  0  0  0  0  0
  -12.1550    5.5730    4.0710 C   0  0  0  0  0  0  0  0  0  0  0  0
  -11.8700    4.2310    4.3270 C   0  0  0  0  0  0  0  0  0  0  0  0
  -11.1660    3.8760    5.4790 C   0  0  0  0  0  0  0  0  0  0  0  0
  -12.0160    7.8660    4.7150 O   0  0  0  0  0  0  0  0  0  0  0  0
   -6.8990    7.6510    9.7710 O   0  0  0  0  0  0  0  0  0  0  0  0
   -6.6233    2.8570    5.2799 S   0  0  0  0  0  0  0  0  0  0  0  0
   -7.5355    2.1856    4.0383 C   0  0  0  0  0  0  0  0  0  0  0  0
   -8.7331    2.8856    3.9640 C   0  0  0  0  0  0  0  0  0  0  0  0
   -8.8645    3.9009    4.8651 N   0  0  0  0  0  0  0  0  0  0  0  0
  -10.0457    4.7645    4.9016 C   0  0  0  0  0  0  0  0  0  0  0  0
  1  3  4  0
  1 14  4  0
  1  2  1  0
  3  4  4  0
  4  5  4  0
  5  6  4  0
  5 22  1  0
  6  7  1  0
  6 14  4  0
  7  8  1  0
  8  9  4  0
  8 12  4  0
  9 10  4  0
 10 11  4  0
 11 12  4  0
 12 13  1  0
 13 14  1  0
 13 15  1  6
 15 16  4  0
 15 20  4  0
 16 17  4  0
 17 18  4  0
 17 21  1  0
 18 19  4  0
 19 20  4  0
 23 24  4  0
 24 25  4  0
 25 26  4  0
 26 27  1  0
  2 23  4  0
  2 26  4  0
M  CHG  1  26   1
M  END
$$$$

     RDKit          3D

 44 50  0  0  0  0  0  0  0  0999 V2000
   -7.6410    4.9930    6.8080 C   0  0  0  0  0  0  0  0  0  1  0  0
   -7.7310    4.0530    5.7140 C   0  0  0  0  0  0  0  0  0  2  0  0
   -6.4520    5.6300    6.8680 N   0  0  0  0  0  0  0  0  0  0  0  0
   -6.2260    6.5240    7.8670 N   0  0  0  0  0  0  0  0  0  0  0  0
   -7.1930    6.7500    8.7820 C   0  0  0  0  0  0  0  0  0  0  0  0
   -8.4240    6.1170    8.7580 C   0  0  0  0  0  0  0  0  0  0  0  0
   -9.3950    6.3570    9.7450 N   0  0  0  0  0  0  0  0  0  0  0  0
  -10.5620    5.6840    9.7600 C   0  0  0  0  0  0  0  0  0  0  0  0
  -11.5770    5.6820   10.5960 N   0  0  0  0  0  0  0  0  0  0  0  0
  -12.4690    4.7490   10.1080 N   0  0  0  0  0  0  0  0  0  0  0  0
  -12.0160    4.1880    8.9920 N   0  0  0  0  0  0  0  0  0  0  0  0
  -10.8400    4.7900    8.7610 N   0  0  0  0  0  0  0  0  0  0  0  0
   -9.9950    4.4790    7.6090 C   0  0  0  0  0  0  0  0  0  0  0  0
   -8.6630    5.2070    7.7200 C   0  0  0  0  0  0  0  0  0  0  0  0
  -10.7490    4.8610    6.3730 C   0  0  0  0  0  0  0  0  0  0  0  0
  -11.0350    6.2020    6.1170 C   0  0  0  0  0  0  0  0  0  0  0  0
  -11.7370    6.5580    4.9650 C   0  0  0  0  0  0  0  0  0  0  0  0
  -12.1550    5.5730    4.0710 C   0  0  0  0  0  0  0  0  0  0  0  0
  -11.8700    4.2310    4.3270 C   0  0  0  0  0  0  0  0  0  0  0  0
  -11.1660    3.8760    5.4790 C   0  0  0  0  0  0  0  0  0  0  0  0
  -12.0160    7.8660    4.7150 O   0  0  0  0  0  0  0  0  0  0  0  0
   -6.8990    7.6510    9.7710 O   0  0  0  0  0  0  0  0  0  0  0  0
   -8.7462    4.1914    4.6595 C   0  0  0  0  0  0  0  0  0  0  0  0
   -9.5664    5.3821    4.6248 C   0  0  0  0  0  0  0  0  0  0  0  0
  -10.2235    6.3343    4.5974 N   0  0  0  0  0  0  0  0  0  0  0  0
   -8.8791    3.2072    3.6493 C   0  0  0  0  0  0  0  0  0  0  0  0
  -10.0743    3.3844    2.3185 S   0  0  0  0  0  0  0  0  0  0  0  0
  -11.3972    2.5290    3.2349 C   0  0  0  0  0  0  0  0  0  0  0  0
  -12.6699    2.5811    2.4511 C   0  0  0  0  0  0  0  0  0  0  0  0
  -13.1461    1.5157    1.9742 O   0  0  0  0  0  0  0  0  0  0  0  0
  -13.3211    3.8419    2.2245 N   0  0  0  0  0  0  0  0  0  0  0  0
  -14.6219    3.9836    1.6289 C   0  0  0  0  0  0  0  0  0  0  0  0
  -15.6510    3.0573    1.8809 C   0  0  0  0  0  0  0  0  0  0  0  0
  -16.9145    3.2333    1.3079 C   0  0  0  0  0  0  0  0  0  0  0  0
  -17.1670    4.3396    0.4909 C   0  0  0  0  0  0  0  0  0  0  0  0
  -18.7532    4.5593   -0.2250 Cl  0  0  0  0  0  0  0  0  0  0  0  0
  -16.1562    5.2764    0.2547 C   0  0  0  0  0  0  0  0  0  0  0  0
  -14.8924    5.1034    0.8272 C   0  0  0  0  0  0  0  0  0  0  0  0
   -8.0922    2.0953    3.6705 N   0  0  0  0  0  0  0  0  0  0  0  0
   -7.1754    1.9184    4.6530 C   0  0  0  0  0  0  0  0  0  0  0  0
   -7.0048    2.8388    5.6494 C   0  0  0  0  0  0  0  0  0  0  0  0
   -5.9696    2.3986    6.6200 C   0  0  0  0  0  0  0  0  0  0  0  0
   -5.5389    1.0086    6.1106 C   0  0  0  0  0  0  0  0  0  0  0  0
   -6.2894    0.7448    4.7920 C   0  0  0  0  0  0  0  0  0  0  0  0
  1  3  4  0
  1 14  4  0
  1  2  1  0
  3  4  4  0
  4  5  4  0
  5  6  4  0
  5 22  1  0
  6  7  1  0
  6 14  4  0
  7  8  1  0
  8  9  4  0
  8 12  4  0
  9 10  4  0
 10 11  4  0
 11 12  4  0
 12 13  1  0
 13 14  1  0
 13 15  1  6
 15 16  4  0
 15 20  4  0
 16 17  4  0
 17 18  4  0
 17 21  1  0
 18 19  4  0
 19 20  4  0
 23 24  1  0
 24 25  3  0
 23 26  4  0
 26 27  1  0
 27 28  1  0
 28 29  1  0
 29 30  2  0
 29 31  1  0
 31 32  1  0
 32 33  4  0
 33 34  4  0
 34 35  4  0
 35 36  1  0
 35 37  4  0
 37 38  4  0
 26 39  4  0
 39 40  4  0
 40 41  4  0
 41 42  1  0
 42 43  1  0
 43 44  1  0
 38 32  4  0
 44 40  1  0
  2 23  4  0
  2 41  4  0
M  END
$$$$

     RDKit          3D

 44 50  0  0  0  0  0  0  0  0999 V2000
   -7.6410    4.9930    6.8080 C   0  0  0  0  0  0  0  0  0  1  0  0
   -7.7310    4.0530    5.7140 C   0  0  0  0  0  0  0  0  0  2  0  0
   -6.4520    5.6300    6.8680 N   0  0  0  0  0  0  0  0  0  0  0  0
   -6.2260    6.5240    7.8670 N   0  0  0  0  0  0  0  0  0  0  0  0
   -7.1930    6.7500    8.7820 C   0  0  0  0  0  0  0  0  0  0  0  0
   -8.4240    6.1170    8.7580 C   0  0  0  0  0  0  0  0  0  0  0  0
   -9.3950    6.3570    9.7450 N   0  0  0  0  0  0  0  0  0  0  0  0
  -10.5620    5.6840    9.7600 C   0  0  0  0  0  0  0  0  0  0  0  0
  -11.5770    5.6820   10.5960 N   0  0  0  0  0  0  0  0  0  0  0  0
  -12.4690    4.7490   10.1080 N   0  0  0  0  0  0  0  0  0  0  0  0
  -12.0160    4.1880    8.9920 N   0  0  0  0  0  0  0  0  0  0  0  0
  -10.8400    4.7900    8.7610 N   0  0  0  0  0  0  0  0  0  0  0  0
   -9.9950    4.4790    7.6090 C   0  0  0  0  0  0  0  0  0  0  0  0
   -8.6630    5.2070    7.7200 C   0  0  0  0  0  0  0  0  0  0  0  0
  -10.7490    4.8610    6.3730 C   0  0  0  0  0  0  0  0  0  0  0  0
  -11.0350    6.2020    6.1170 C   0  0  0  0  0  0  0  0  0  0  0  0
  -11.7370    6.5580    4.9650 C   0  0  0  0  0  0  0  0  0  0  0  0
  -12.1550    5.5730    4.0710 C   0  0  0  0  0  0  0  0  0  0  0  0
  -11.8700    4.2310    4.3270 C   0  0  0  0  0  0  0  0  0  0  0  0
  -11.1660    3.8760    5.4790 C   0  0  0  0  0  0  0  0  0  0  0  0
  -12.0160    7.8660    4.7150 O   0  0  0  0  0  0  0  0  0  0  0  0
   -6.8990    7.6510    9.7710 O   0  0  0  0  0  0  0  0  0  0  0  0
   -7.0011    2.8265    5.6128 C   0  0  0  0  0  0  0  0  0  0  0  0
   -6.0292    2.5222    6.6398 C   0  0  0  0  0  0  0  0  0  0  0  0
   -5.2510    2.2791    7.4611 N   0  0  0  0  0  0  0  0  0  0  0  0
   -7.1908    1.9357    4.5277 C   0  0  0  0  0  0  0  0  0  0  0  0
   -6.2264    0.4268    4.3731 S   0  0  0  0  0  0  0  0  0  0  0  0
   -4.9094    1.2286    3.4013 C   0  0  0  0  0  0  0  0  0  0  0  0
   -3.7945    0.2599    3.1660 C   0  0  0  0  0  0  0  0  0  0  0  0
   -3.5698   -0.1513    1.9956 O   0  0  0  0  0  0  0  0  0  0  0  0
   -3.0112   -0.2141    4.2736 N   0  0  0  0  0  0  0  0  0  0  0  0
   -1.8265   -1.0177    4.1402 C   0  0  0  0  0  0  0  0  0  0  0  0
   -0.9191   -0.8204    3.0827 C   0  0  0  0  0  0  0  0  0  0  0  0
    0.2379   -1.6006    2.9911 C   0  0  0  0  0  0  0  0  0  0  0  0
    0.5070   -2.5737    3.9586 C   0  0  0  0  0  0  0  0  0  0  0  0
    1.9597   -3.5499    3.8424 Cl  0  0  0  0  0  0  0  0  0  0  0  0
   -0.3781   -2.7596    5.0248 C   0  0  0  0  0  0  0  0  0  0  0  0
   -1.5349   -1.9801    5.1194 C   0  0  0  0  0  0  0  0  0  0  0  0
   -8.1205    2.2121    3.5710 N   0  0  0  0  0  0  0  0  0  0  0  0
   -8.8733    3.3367    3.6459 C   0  0  0  0  0  0  0  0  0  0  0  0
   -8.7321    4.2274    4.6735 C   0  0  0  0  0  0  0  0  0  0  0  0
   -9.6417    5.3907    4.5089 C   0  0  0  0  0  0  0  0  0  0  0  0
  -10.3570    5.1260    3.1688 C   0  0  0  0  0  0  0  0  0  0  0  0
   -9.8890    3.7509    2.6569 C   0  0  0  0  0  0  0  0  0  0  0  0
  1  3  4  0
  1 14  4  0
  1  2  1  0
  3  4  4  0
  4  5  4  0
  5  6  4  0
  5 22  1  0
  6  7  1  0
  6 14  4  0
  7  8  1  0
  8  9  4  0
  8 12  4  0
  9 10  4  0
 10 11  4  0
 11 12  4  0
 12 13  1  0
 13 14  1  0
 13 15  1  6
 15 16  4  0
 15 20  4  0
 16 17  4  0
 17 18  4  0
 17 21  1  0
 18 19  4  0
 19 20  4  0
 23 24  1  0
 24 25  3  0
 23 26  4  0
 26 27  1  0
 27 28  1  0
 28 29  1  0
 29 30  2  0
 29 31  1  0
 31 32  1  0
 32 33  4  0
 33 34  4  0
 34 35  4  0
 35 36  1  0
 35 37  4  0
 37 38  4  0
 26 39  4  0
 39 40  4  0
 40 41  4  0
 41 42  1  0
 42 43  1  0
 43 44  1  0
 38 32  4  0
 44 40  1  0
  2 23  4  0
  2 41  4  0
M  END
$$$$

     RDKit          3D

 44 50  0  0  0  0  0  0  0  0999 V2000
   -7.6410    4.9930    6.8080 C   0  0  0  0  0  0  0  0  0  1  0  0
   -7.7310    4.0530    5.7140 C   0  0  0  0  0  0  0  0  0  2  0  0
   -6.4520    5.6300    6.8680 N   0  0  0  0  0  0  0  0  0  0  0  0
   -6.2260    6.5240    7.8670 N   0  0  0  0  0  0  0  0  0  0  0  0
   -7.1930    6.7500    8.7820 C   0  0  0  0  0  0  0  0  0  0  0  0
   -8.4240    6.1170    8.7580 C   0  0  0  0  0  0  0  0  0  0  0  0
   -9.3950    6.3570    9.7450 N   0  0  0  0  0  0  0  0  0  0  0  0
  -10.5620    5.6840    9.7600 C   0  0  0  0  0  0  0  0  0  0  0  0
  -11.5770    5.6820   10.5960 N   0  0  0  0  0  0  0  0  0  0  0  0
  -12.4690    4.7490   10.1080 N   0  0  0  0  0  0  0  0  0  0  0  0
  -12.0160    4.1880    8.9920 N   0  0  0  0  0  0  0  0  0  0  0  0
  -10.8400    4.7900    8.7610 N   0  0  0  0  0  0  0  0  0  0  0  0
   -9.9950    4.4790    7.6090 C   0  0  0  0  0  0  0  0  0  0  0  0
   -8.6630    5.2070    7.7200 C   0  0  0  0  0  0  0  0  0  0  0  0
  -10.7490    4.8610    6.3730 C   0  0  0  0  0  0  0  0  0  0  0  0
  -11.0350    6.2020    6.1170 C   0  0  0  0  0  0  0  0  0  0  0  0
  -11.7370    6.5580    4.9650 C   0  0  0  0  0  0  0  0  0  0  0  0
  -12.1550    5.5730    4.0710 C   0  0  0  0  0  0  0  0  0  0  0  0
  -11.8700    4.2310    4.3270 C   0  0  0  0  0  0  0  0  0  0  0  0
  -11.1660    3.8760    5.4790 C   0  0  0  0  0  0  0  0  0  0  0  0
  -12.0160    7.8660    4.7150 O   0  0  0  0  0  0  0  0  0  0  0  0
   -6.8990    7.6510    9.7710 O   0  0  0  0  0  0  0  0  0  0  0  0
   -7.0035    2.8245    5.6146 C   0  0  0  0  0  0  0  0  0  0  0  0
   -6.0332    2.5199    6.6428 C   0  0  0  0  0  0  0  0  0  0  0  0
   -5.2573    2.2764    7.4661 N   0  0  0  0  0  0  0  0  0  0  0  0
   -7.2008    1.9285    4.5351 C   0  0  0  0  0  0  0  0  0  0  0  0
   -6.2477    0.4118    4.3861 S   0  0  0  0  0  0  0  0  0  0  0  0
   -7.4594   -0.5803    5.3187 C   0  0  0  0  0  0  0  0  0  0  0  0
   -7.0000   -2.0020    5.3934 C   0  0  0  0  0  0  0  0  0  0  0  0
   -6.6624   -2.4840    6.5083 O   0  0  0  0  0  0  0  0  0  0  0  0
   -6.9199   -2.7944    4.1973 N   0  0  0  0  0  0  0  0  0  0  0  0
   -6.6495   -4.2064    4.1809 C   0  0  0  0  0  0  0  0  0  0  0  0
   -7.1510   -5.0628    5.1786 C   0  0  0  0  0  0  0  0  0  0  0  0
   -6.8931   -6.4362    5.1244 C   0  0  0  0  0  0  0  0  0  0  0  0
   -6.1457   -6.9691    4.0696 C   0  0  0  0  0  0  0  0  0  0  0  0
   -5.8255   -8.6925    4.0027 Cl  0  0  0  0  0  0  0  0  0  0  0  0
   -5.6635   -6.1277    3.0625 C   0  0  0  0  0  0  0  0  0  0  0  0
   -5.9208   -4.7544    3.1136 C   0  0  0  0  0  0  0  0  0  0  0  0
   -8.1267    2.2082    3.5755 N   0  0  0  0  0  0  0  0  0  0  0  0
   -8.8749    3.3360    3.6471 C   0  0  0  0  0  0  0  0  0  0  0  0
   -8.7321    4.2277    4.6735 C   0  0  0  0  0  0  0  0  0  0  0  0
   -9.6399    5.3922    4.5078 C   0  0  0  0  0  0  0  0  0  0  0  0
  -10.3569    5.1265    3.1688 C   0  0  0  0  0  0  0  0  0  0  0  0
   -9.8900    3.7508    2.6576 C   0  0  0  0  0  0  0  0  0  0  0  0
  1  3  4  0
  1 14  4  0
  1  2  1  0
  3  4  4  0
  4  5  4  0
  5  6  4  0
  5 22  1  0
  6  7  1  0
  6 14  4  0
  7  8  1  0
  8  9  4  0
  8 12  4  0
  9 10  4  0
 10 11  4  0
 11 12  4  0
 12 13  1  0
 13 14  1  0
 13 15  1  6
 15 16  4  0
 15 20  4  0
 16 17  4  0
 17 18  4  0
 17 21  1  0
 18 19  4  0
 19 20  4  0
 23 24  1  0
 24 25  3  0
 23 26  4  0
 26 27  1  0
 27 28  1  0
 28 29  1  0
 29 30  2  0
 29 31  1  0
 31 32  1  0
 32 33  4  0
 33 34  4  0
 34 35  4  0
 35 36  1  0
 35 37  4  0
 37 38  4  0
 26 39  4  0
 39 40  4  0
 40 41  4  0
 41 42  1  0
 42 43  1  0
 43 44  1  0
 38 32  4  0
 44 40  1  0
  2 23  4  0
  2 41  4  0
M  END
$$$$

     RDKit          3D

 44 50  0  0  0  0  0  0  0  0999 V2000
   -7.6410    4.9930    6.8080 C   0  0  0  0  0  0  0  0  0  1  0  0
   -7.7310    4.0530    5.7140 C   0  0  0  0  0  0  0  0  0  2  0  0
   -6.4520    5.6300    6.8680 N   0  0  0  0  0  0  0  0  0  0  0  0
   -6.2260    6.5240    7.8670 N   0  0  0  0  0  0  0  0  0  0  0  0
   -7.1930    6.7500    8.7820 C   0  0  0  0  0  0  0  0  0  0  0  0
   -8.4240    6.1170    8.7580 C   0  0  0  0  0  0  0  0  0  0  0  0
   -9.3950    6.3570    9.7450 N   0  0  0  0  0  0  0  0  0  0  0  0
  -10.5620    5.6840    9.7600 C   0  0  0  0  0  0  0  0  0  0  0  0
  -11.5770    5.6820   10.5960 N   0  0  0  0  0  0  0  0  0  0  0  0
  -12.4690    4.7490   10.1080 N   0  0  0  0  0  0  0  0  0  0  0  0
  -12.0160    4.1880    8.9920 N   0  0  0  0  0  0  0  0  0  0  0  0
  -10.8400    4.7900    8.7610 N   0  0  0  0  0  0  0  0  0  0  0  0
   -9.9950    4.4790    7.6090 C   0  0  0  0  0  0  0  0  0  0  0  0
   -8.6630    5.2070    7.7200 C   0  0  0  0  0  0  0  0  0  0  0  0
  -10.7490    4.8610    6.3730 C   0  0  0  0  0  0  0  0  0  0  0  0
  -11.0350    6.2020    6.1170 C   0  0  0  0  0  0  0  0  0  0  0  0
  -11.7370    6.5580    4.9650 C   0  0  0  0  0  0  0  0  0  0  0  0
  -12.1550    5.5730    4.0710 C   0  0  0  0  0  0  0  0  0  0  0  0
  -11.8700    4.2310    4.3270 C   0  0  0  0  0  0  0  0  0  0  0  0
  -11.1660    3.8760    5.4790 C   0  0  0  0  0  0  0  0  0  0  0  0
  -12.0160    7.8660    4.7150 O   0  0  0  0  0  0  0  0  0  0  0  0
   -6.8990    7.6510    9.7710 O   0  0  0  0  0  0  0  0  0  0  0  0
   -8.7472    4.1906    4.6602 C   0  0  0  0  0  0  0  0  0  0  0  0
   -9.5645    5.3832    4.6240 C   0  0  0  0  0  0  0  0  0  0  0  0
  -10.2186    6.3374    4.5958 N   0  0  0  0  0  0  0  0  0  0  0  0
   -8.8842    3.2037    3.6529 C   0  0  0  0  0  0  0  0  0  0  0  0
  -10.0798    3.3805    2.3190 S   0  0  0  0  0  0  0  0  0  0  0  0
  -11.4706    2.6343    3.2391 C   0  0  0  0  0  0  0  0  0  0  0  0
  -11.4586    1.1423    3.0989 C   0  0  0  0  0  0  0  0  0  0  0  0
  -10.5571    0.4746    3.6735 O   0  0  0  0  0  0  0  0  0  0  0  0
  -12.4514    0.4857    2.2944 N   0  0  0  0  0  0  0  0  0  0  0  0
  -12.6604   -0.9369    2.2770 C   0  0  0  0  0  0  0  0  0  0  0  0
  -12.5099   -1.7161    3.4393 C   0  0  0  0  0  0  0  0  0  0  0  0
  -12.7418   -3.0945    3.3997 C   0  0  0  0  0  0  0  0  0  0  0  0
  -13.1381   -3.7057    2.2061 C   0  0  0  0  0  0  0  0  0  0  0  0
  -13.4299   -5.4348    2.1594 Cl  0  0  0  0  0  0  0  0  0  0  0  0
  -13.3116   -2.9348    1.0526 C   0  0  0  0  0  0  0  0  0  0  0  0
  -13.0813   -1.5562    1.0896 C   0  0  0  0  0  0  0  0  0  0  0  0
   -8.0920    2.0956    3.6713 N   0  0  0  0  0  0  0  0  0  0  0  0
   -7.1739    1.9195    4.6524 C   0  0  0  0  0  0  0  0  0  0  0  0
   -7.0046    2.8390    5.6496 C   0  0  0  0  0  0  0  0  0  0  0  0
   -5.9700    2.3984    6.6206 C   0  0  0  0  0  0  0  0  0  0  0  0
   -5.5398    1.0081    6.1112 C   0  0  0  0  0  0  0  0  0  0  0  0
   -6.2884    0.7457    4.7911 C   0  0  0  0  0  0  0  0  0  0  0  0
  1  3  4  0
  1 14  4  0
  1  2  1  0
  3  4  4  0
  4  5  4  0
  5  6  4  0
  5 22  1  0
  6  7  1  0
  6 14  4  0
  7  8  1  0
  8  9  4  0
  8 12  4  0
  9 10  4  0
 10 11  4  0
 11 12  4  0
 12 13  1  0
 13 14  1  0
 13 15  1  6
 15 16  4  0
 15 20  4  0
 16 17  4  0
 17 18  4  0
 17 21  1  0
 18 19  4  0
 19 20  4  0
 23 24  1  0
 24 25  3  0
 23 26  4  0
 26 27  1  0
 27 28  1  0
 28 29  1  0
 29 30  2  0
 29 31  1  0
 31 32  1  0
 32 33  4  0
 33 34  4  0
 34 35  4  0
 35 36  1  0
 35 37  4  0
 37 38  4  0
 26 39  4  0
 39 40  4  0
 40 41  4  0
 41 42  1  0
 42 43  1  0
 43 44  1  0
 38 32  4  0
 44 40  1  0
  2 23  4  0
  2 41  4  0
M  END
$$$$

     RDKit          3D

 44 50  0  0  0  0  0  0  0  0999 V2000
   -7.6410    4.9930    6.8080 C   0  0  0  0  0  0  0  0  0  1  0  0
   -7.7310    4.0530    5.7140 C   0  0  0  0  0  0  0  0  0  2  0  0
   -6.4520    5.6300    6.8680 N   0  0  0  0  0  0  0  0  0  0  0  0
   -6.2260    6.5240    7.8670 N   0  0  0  0  0  0  0  0  0  0  0  0
   -7.1930    6.7500    8.7820 C   0  0  0  0  0  0  0  0  0  0  0  0
   -8.4240    6.1170    8.7580 C   0  0  0  0  0  0  0  0  0  0  0  0
   -9.3950    6.3570    9.7450 N   0  0  0  0  0  0  0  0  0  0  0  0
  -10.5620    5.6840    9.7600 C   0  0  0  0  0  0  0  0  0  0  0  0
  -11.5770    5.6820   10.5960 N   0  0  0  0  0  0  0  0  0  0  0  0
  -12.4690    4.7490   10.1080 N   0  0  0  0  0  0  0  0  0  0  0  0
  -12.0160    4.1880    8.9920 N   0  0  0  0  0  0  0  0  0  0  0  0
  -10.8400    4.7900    8.7610 N   0  0  0  0  0  0  0  0  0  0  0  0
   -9.9950    4.4790    7.6090 C   0  0  0  0  0  0  0  0  0  0  0  0
   -8.6630    5.2070    7.7200 C   0  0  0  0  0  0  0  0  0  0  0  0
  -10.7490    4.8610    6.3730 C   0  0  0  0  0  0  0  0  0  0  0  0
  -11.0350    6.2020    6.1170 C   0  0  0  0  0  0  0  0  0  0  0  0
  -11.7370    6.5580    4.9650 C   0  0  0  0  0  0  0  0  0  0  0  0
  -12.1550    5.5730    4.0710 C   0  0  0  0  0  0  0  0  0  0  0  0
  -11.8700    4.2310    4.3270 C   0  0  0  0  0  0  0  0  0  0  0  0
  -11.1660    3.8760    5.4790 C   0  0  0  0  0  0  0  0  0  0  0  0
  -12.0160    7.8660    4.7150 O   0  0  0  0  0  0  0  0  0  0  0  0
   -6.8990    7.6510    9.7710 O   0  0  0  0  0  0  0  0  0  0  0  0
   -7.0036    2.8245    5.6143 C   0  0  0  0  0  0  0  0  0  0  0  0
   -6.0326    2.5204    6.6420 C   0  0  0  0  0  0  0  0  0  0  0  0
   -5.2561    2.2776    7.4648 N   0  0  0  0  0  0  0  0  0  0  0  0
   -7.2029    1.9270    4.5363 C   0  0  0  0  0  0  0  0  0  0  0  0
   -6.2526    0.4047    4.3917 S   0  0  0  0  0  0  0  0  0  0  0  0
   -7.4313   -0.5989    5.3700 C   0  0  0  0  0  0  0  0  0  0  0  0
   -8.6324   -1.0312    4.5763 C   0  0  0  0  0  0  0  0  0  0  0  0
   -8.7241   -0.7500    3.3500 O   0  0  0  0  0  0  0  0  0  0  0  0
   -9.6889   -1.7435    5.2386 N   0  0  0  0  0  0  0  0  0  0  0  0
  -10.8008   -2.3521    4.5601 C   0  0  0  0  0  0  0  0  0  0  0  0
  -10.6466   -2.9719    3.3062 C   0  0  0  0  0  0  0  0  0  0  0  0
  -11.7403   -3.5769    2.6789 C   0  0  0  0  0  0  0  0  0  0  0  0
  -12.9926   -3.5811    3.3011 C   0  0  0  0  0  0  0  0  0  0  0  0
  -14.3622   -4.3431    2.5134 Cl  0  0  0  0  0  0  0  0  0  0  0  0
  -13.1483   -2.9872    4.5572 C   0  0  0  0  0  0  0  0  0  0  0  0
  -12.0563   -2.3827    5.1872 C   0  0  0  0  0  0  0  0  0  0  0  0
   -8.1272    2.2088    3.5759 N   0  0  0  0  0  0  0  0  0  0  0  0
   -8.8749    3.3367    3.6472 C   0  0  0  0  0  0  0  0  0  0  0  0
   -8.7325    4.2277    4.6739 C   0  0  0  0  0  0  0  0  0  0  0  0
   -9.6428    5.3905    4.5099 C   0  0  0  0  0  0  0  0  0  0  0  0
  -10.3542    5.1282    3.1673 C   0  0  0  0  0  0  0  0  0  0  0  0
   -9.8925    3.7495    2.6596 C   0  0  0  0  0  0  0  0  0  0  0  0
  1  3  4  0
  1 14  4  0
  1  2  1  0
  3  4  4  0
  4  5  4  0
  5  6  4  0
  5 22  1  0
  6  7  1  0
  6 14  4  0
  7  8  1  0
  8  9  4  0
  8 12  4  0
  9 10  4  0
 10 11  4  0
 11 12  4  0
 12 13  1  0
 13 14  1  0
 13 15  1  6
 15 16  4  0
 15 20  4  0
 16 17  4  0
 17 18  4  0
 17 21  1  0
 18 19  4  0
 19 20  4  0
 23 24  1  0
 24 25  3  0
 23 26  4  0
 26 27  1  0
 27 28  1  0
 28 29  1  0
 29 30  2  0
 29 31  1  0
 31 32  1  0
 32 33  4  0
 33 34  4  0
 34 35  4  0
 35 36  1  0
 35 37  4  0
 37 38  4  0
 26 39  4  0
 39 40  4  0
 40 41  4  0
 41 42  1  0
 42 43  1  0
 43 44  1  0
 38 32  4  0
 44 40  1  0
  2 23  4  0
  2 41  4  0
M  END
$$$$

     RDKit          3D

 36 42  0  0  0  0  0  0  0  0999 V2000
   -7.6410    4.9930    6.8080 C   0  0  0  0  0  0  0  0  0  1  0  0
   -7.7310    4.0530    5.7140 C   0  0  0  0  0  0  0  0  0  2  0  0
   -6.4520    5.6300    6.8680 N   0  0  0  0  0  0  0  0  0  0  0  0
   -6.2260    6.5240    7.8670 N   0  0  0  0  0  0  0  0  0  0  0  0
   -7.1930    6.7500    8.7820 C   0  0  0  0  0  0  0  0  0  0  0  0
   -8.4240    6.1170    8.7580 C   0  0  0  0  0  0  0  0  0  0  0  0
   -9.3950    6.3570    9.7450 N   0  0  0  0  0  0  0  0  0  0  0  0
  -10.5620    5.6840    9.7600 C   0  0  0  0  0  0  0  0  0  0  0  0
  -11.5770    5.6820   10.5960 N   0  0  0  0  0  0  0  0  0  0  0  0
  -12.4690    4.7490   10.1080 N   0  0  0  0  0  0  0  0  0  0  0  0
  -12.0160    4.1880    8.9920 N   0  0  0  0  0  0  0  0  0  0  0  0
  -10.8400    4.7900    8.7610 N   0  0  0  0  0  0  0  0  0  0  0  0
   -9.9950    4.4790    7.6090 C   0  0  0  0  0  0  0  0  0  0  0  0
   -8.6630    5.2070    7.7200 C   0  0  0  0  0  0  0  0  0  0  0  0
  -10.7490    4.8610    6.3730 C   0  0  0  0  0  0  0  0  0  0  0  0
  -11.0350    6.2020    6.1170 C   0  0  0  0  0  0  0  0  0  0  0  0
  -11.7370    6.5580    4.9650 C   0  0  0  0  0  0  0  0  0  0  0  0
  -12.1550    5.5730    4.0710 C   0  0  0  0  0  0  0  0  0  0  0  0
  -11.8700    4.2310    4.3270 C   0  0  0  0  0  0  0  0  0  0  0  0
  -11.1660    3.8760    5.4790 C   0  0  0  0  0  0  0  0  0  0  0  0
  -12.0160    7.8660    4.7150 O   0  0  0  0  0  0  0  0  0  0  0  0
   -6.8990    7.6510    9.7710 O   0  0  0  0  0  0  0  0  0  0  0  0
   -6.7784    3.3063    5.0377 C   0  0  0  0  0  0  0  0  0  0  0  0
   -7.3059    2.4604    4.1234 N   0  0  0  0  0  0  0  0  0  0  0  0
   -8.6340    2.6616    4.2340 C   0  0  0  0  0  0  0  0  0  0  0  0
   -9.6108    2.0182    3.4776 C   0  0  0  0  0  0  0  0  0  0  0  0
  -10.9617    2.3612    3.6987 C   0  0  0  0  0  0  0  0  0  1  0  0
  -12.0411    1.7045    2.9179 C   0  0  0  0  0  0  0  0  0  2  0  0
  -13.1410    2.4484    2.4497 C   0  0  0  0  0  0  0  0  0  0  0  0
  -14.1551    1.8269    1.7144 C   0  0  0  0  0  0  0  0  0  0  0  0
  -14.0841    0.4597    1.4389 C   0  0  0  0  0  0  0  0  0  0  0  0
  -12.9983   -0.2893    1.8977 C   0  0  0  0  0  0  0  0  0  0  0  0
  -11.9810    0.3270    2.6327 C   0  0  0  0  0  0  0  0  0  0  0  0
  -11.2731    3.3443    4.6680 C   0  0  0  0  0  0  0  0  0  0  0  0
  -10.2471    3.9586    5.3991 C   0  0  0  0  0  0  0  0  0  0  0  0
   -8.9623    3.5799    5.1604 N   0  0  0  0  0  0  0  0  0  0  0  0
  1  3  4  0
  1 14  4  0
  1  2  1  0
  3  4  4  0
  4  5  4  0
  5  6  4  0
  5 22  1  0
  6  7  1  0
  6 14  4  0
  7  8  1  0
  8  9  4  0
  8 12  4  0
  9 10  4  0
 10 11  4  0
 11 12  4  0
 12 13  1  0
 13 14  1  0
 13 15  1  6
 15 16  4  0
 15 20  4  0
 16 17  4  0
 17 18  4  0
 17 21  1  0
 18 19  4  0
 19 20  4  0
 23 24  4  0
 24 25  4  0
 25 26  4  0
 26 27  4  0
 27 28  1  0
 28 29  4  0
 29 30  4  0
 30 31  4  0
 31 32  4  0
 32 33  4  0
 27 34  4  0
 34 35  4  0
 35 36  4  0
 36 25  4  0
 33 28  4  0
  2 23  4  0
  2 36  4  0
M  END
$$$$

     RDKit          3D

 30 35  0  0  0  0  0  0  0  0999 V2000
   -7.6410    4.9930    6.8080 C   0  0  0  0  0  0  0  0  0  1  0  0
   -7.7310    4.0530    5.7140 C   0  0  0  0  0  0  0  0  0  2  0  0
   -6.4520    5.6300    6.8680 N   0  0  0  0  0  0  0  0  0  0  0  0
   -6.2260    6.5240    7.8670 N   0  0  0  0  0  0  0  0  0  0  0  0
   -7.1930    6.7500    8.7820 C   0  0  0  0  0  0  0  0  0  0  0  0
   -8.4240    6.1170    8.7580 C   0  0  0  0  0  0  0  0  0  0  0  0
   -9.3950    6.3570    9.7450 N   0  0  0  0  0  0  0  0  0  0  0  0
  -10.5620    5.6840    9.7600 C   0  0  0  0  0  0  0  0  0  0  0  0
  -11.5770    5.6820   10.5960 N   0  0  0  0  0  0  0  0  0  0  0  0
  -12.4690    4.7490   10.1080 N   0  0  0  0  0  0  0  0  0  0  0  0
  -12.0160    4.1880    8.9920 N   0  0  0  0  0  0  0  0  0  0  0  0
  -10.8400    4.7900    8.7610 N   0  0  0  0  0  0  0  0  0  0  0  0
   -9.9950    4.4790    7.6090 C   0  0  0  0  0  0  0  0  0  0  0  0
   -8.6630    5.2070    7.7200 C   0  0  0  0  0  0  0  0  0  0  0  0
  -10.7490    4.8610    6.3730 C   0  0  0  0  0  0  0  0  0  0  0  0
  -11.0350    6.2020    6.1170 C   0  0  0  0  0  0  0  0  0  0  0  0
  -11.7370    6.5580    4.9650 C   0  0  0  0  0  0  0  0  0  0  0  0
  -12.1550    5.5730    4.0710 C   0  0  0  0  0  0  0  0  0  0  0  0
  -11.8700    4.2310    4.3270 C   0  0  0  0  0  0  0  0  0  0  0  0
  -11.1660    3.8760    5.4790 C   0  0  0  0  0  0  0  0  0  0  0  0
  -12.0160    7.8660    4.7150 O   0  0  0  0  0  0  0  0  0  0  0  0
   -6.8990    7.6510    9.7710 O   0  0  0  0  0  0  0  0  0  0  0  0
   -6.7388    3.2634    5.2060 N   0  0  0  0  0  0  0  0  0  0  0  0
   -7.3309    2.5432    4.2368 C   0  0  0  0  0  0  0  0  0  0  0  0
   -6.7631    1.4225    3.1305 S   0  0  0  0  0  0  0  0  0  0  0  0
   -8.3520    1.3189    2.4715 C   0  0  0  0  0  0  0  0  0  0  0  0
   -9.2328    2.1397    3.1101 N   0  0  0  0  0  0  0  0  0  0  0  0
   -8.6079    2.7852    4.0830 N   0  0  0  0  0  0  0  0  0  0  0  0
   -8.9597    3.7186    4.9674 C   0  0  0  0  0  0  0  0  0  0  0  0
  -10.3242    4.3216    5.0848 C   0  0  0  0  0  0  0  0  0  0  0  0
  1  3  4  0
  1 14  4  0
  1  2  1  0
  3  4  4  0
  4  5  4  0
  5  6  4  0
  5 22  1  0
  6  7  1  0
  6 14  4  0
  7  8  1  0
  8  9  4  0
  8 12  4  0
  9 10  4  0
 10 11  4  0
 11 12  4  0
 12 13  1  0
 13 14  1  0
 13 15  1  6
 15 16  4  0
 15 20  4  0
 16 17  4  0
 17 18  4  0
 17 21  1  0
 18 19  4  0
 19 20  4  0
 23 24  4  0
 24 25  4  0
 25 26  4  0
 26 27  4  0
 27 28  4  0
 28 29  4  0
 29 30  1  0
 28 24  4  0
  2 23  4  0
  2 29  4  0
M  END
$$$$

     RDKit          3D

 33 37  0  0  0  0  0  0  0  0999 V2000
   -7.6410    4.9930    6.8080 C   0  0  0  0  0  0  0  0  0  1  0  0
   -7.7310    4.0530    5.7140 C   0  0  0  0  0  0  0  0  0  2  0  0
   -6.4520    5.6300    6.8680 N   0  0  0  0  0  0  0  0  0  0  0  0
   -6.2260    6.5240    7.8670 N   0  0  0  0  0  0  0  0  0  0  0  0
   -7.1930    6.7500    8.7820 C   0  0  0  0  0  0  0  0  0  0  0  0
   -8.4240    6.1170    8.7580 C   0  0  0  0  0  0  0  0  0  0  0  0
   -9.3950    6.3570    9.7450 N   0  0  0  0  0  0  0  0  0  0  0  0
  -10.5620    5.6840    9.7600 C   0  0  0  0  0  0  0  0  0  0  0  0
  -11.5770    5.6820   10.5960 N   0  0  0  0  0  0  0  0  0  0  0  0
  -12.4690    4.7490   10.1080 N   0  0  0  0  0  0  0  0  0  0  0  0
  -12.0160    4.1880    8.9920 N   0  0  0  0  0  0  0  0  0  0  0  0
  -10.8400    4.7900    8.7610 N   0  0  0  0  0  0  0  0  0  0  0  0
   -9.9950    4.4790    7.6090 C   0  0  0  0  0  0  0  0  0  0  0  0
   -8.6630    5.2070    7.7200 C   0  0  0  0  0  0  0  0  0  0  0  0
  -10.7490    4.8610    6.3730 C   0  0  0  0  0  0  0  0  0  0  0  0
  -11.0350    6.2020    6.1170 C   0  0  0  0  0  0  0  0  0  0  0  0
  -11.7370    6.5580    4.9650 C   0  0  0  0  0  0  0  0  0  0  0  0
  -12.1550    5.5730    4.0710 C   0  0  0  0  0  0  0  0  0  0  0  0
  -11.8700    4.2310    4.3270 C   0  0  0  0  0  0  0  0  0  0  0  0
  -11.1660    3.8760    5.4790 C   0  0  0  0  0  0  0  0  0  0  0  0
  -12.0160    7.8660    4.7150 O   0  0  0  0  0  0  0  0  0  0  0  0
   -6.8990    7.6510    9.7710 O   0  0  0  0  0  0  0  0  0  0  0  0
   -6.7922    3.1954    5.2647 N   0  0  0  0  0  0  0  0  0  0  0  0
   -7.2852    2.4468    4.2859 N   0  0  0  0  0  0  0  0  0  0  0  0
   -8.5707    2.8120    4.1229 C   0  0  0  0  0  0  0  0  0  0  0  0
   -9.6509    2.1229    2.8695 S   0  0  0  0  0  0  0  0  0  0  0  0
   -9.1994    3.3811    1.6252 C   0  0  0  0  0  0  0  0  0  0  0  0
  -10.0394    3.2188    0.3570 C   0  0  0  0  0  0  0  0  0  0  0  0
  -11.4915    3.5078    0.6089 C   0  0  0  0  0  0  0  0  0  0  0  0
  -11.9191    4.8227    0.9657 N   0  0  0  0  0  0  0  0  0  0  0  0
  -12.3424    2.5857    0.4935 O   0  0  0  0  0  0  0  0  0  0  0  0
   -8.9132    3.7824    4.9865 N   0  0  0  0  0  0  0  0  0  0  0  0
  -10.1074    4.5223    4.9951 N   0  0  0  0  0  0  0  0  0  0  0  0
  1  3  4  0
  1 14  4  0
  1  2  1  0
  3  4  4  0
  4  5  4  0
  5  6  4  0
  5 22  1  0
  6  7  1  0
  6 14  4  0
  7  8  1  0
  8  9  4  0
  8 12  4  0
  9 10  4  0
 10 11  4  0
 11 12  4  0
 12 13  1  0
 13 14  1  0
 13 15  1  6
 15 16  4  0
 15 20  4  0
 16 17  4  0
 17 18  4  0
 17 21  1  0
 18 19  4  0
 19 20  4  0
 23 24  4  0
 24 25  4  0
 25 26  1  0
 26 27  1  0
 27 28  1  0
 28 29  1  0
 29 30  1  0
 29 31  2  0
 25 32  4  0
 32 33  1  0
  2 23  4  0
  2 32  4  0
M  END
$$$$

     RDKit          3D

 33 37  0  0  0  0  0  0  0  0999 V2000
   -7.6410    4.9930    6.8080 C   0  0  0  0  0  0  0  0  0  1  0  0
   -7.7310    4.0530    5.7140 C   0  0  0  0  0  0  0  0  0  2  0  0
   -6.4520    5.6300    6.8680 N   0  0  0  0  0  0  0  0  0  0  0  0
   -6.2260    6.5240    7.8670 N   0  0  0  0  0  0  0  0  0  0  0  0
   -7.1930    6.7500    8.7820 C   0  0  0  0  0  0  0  0  0  0  0  0
   -8.4240    6.1170    8.7580 C   0  0  0  0  0  0  0  0  0  0  0  0
   -9.3950    6.3570    9.7450 N   0  0  0  0  0  0  0  0  0  0  0  0
  -10.5620    5.6840    9.7600 C   0  0  0  0  0  0  0  0  0  0  0  0
  -11.5770    5.6820   10.5960 N   0  0  0  0  0  0  0  0  0  0  0  0
  -12.4690    4.7490   10.1080 N   0  0  0  0  0  0  0  0  0  0  0  0
  -12.0160    4.1880    8.9920 N   0  0  0  0  0  0  0  0  0  0  0  0
  -10.8400    4.7900    8.7610 N   0  0  0  0  0  0  0  0  0  0  0  0
   -9.9950    4.4790    7.6090 C   0  0  0  0  0  0  0  0  0  0  0  0
   -8.6630    5.2070    7.7200 C   0  0  0  0  0  0  0  0  0  0  0  0
  -10.7490    4.8610    6.3730 C   0  0  0  0  0  0  0  0  0  0  0  0
  -11.0350    6.2020    6.1170 C   0  0  0  0  0  0  0  0  0  0  0  0
  -11.7370    6.5580    4.9650 C   0  0  0  0  0  0  0  0  0  0  0  0
  -12.1550    5.5730    4.0710 C   0  0  0  0  0  0  0  0  0  0  0  0
  -11.8700    4.2310    4.3270 C   0  0  0  0  0  0  0  0  0  0  0  0
  -11.1660    3.8760    5.4790 C   0  0  0  0  0  0  0  0  0  0  0  0
  -12.0160    7.8660    4.7150 O   0  0  0  0  0  0  0  0  0  0  0  0
   -6.8990    7.6510    9.7710 O   0  0  0  0  0  0  0  0  0  0  0  0
   -6.7949    3.1887    5.2715 N   0  0  0  0  0  0  0  0  0  0  0  0
   -7.2887    2.4384    4.2943 N   0  0  0  0  0  0  0  0  0  0  0  0
   -8.5719    2.8093    4.1257 C   0  0  0  0  0  0  0  0  0  0  0  0
   -9.6537    2.1133    2.8775 S   0  0  0  0  0  0  0  0  0  0  0  0
  -10.3060    0.8288    3.9993 C   0  0  0  0  0  0  0  0  0  0  0  0
  -11.3368   -0.0472    3.2847 C   0  0  0  0  0  0  0  0  0  0  0  0
  -10.7139   -0.8620    2.1879 C   0  0  0  0  0  0  0  0  0  0  0  0
   -9.7716   -1.8904    2.4933 N   0  0  0  0  0  0  0  0  0  0  0  0
  -11.0346   -0.6467    0.9887 O   0  0  0  0  0  0  0  0  0  0  0  0
   -8.9111    3.7865    4.9826 N   0  0  0  0  0  0  0  0  0  0  0  0
  -10.1079    4.5222    4.9954 N   0  0  0  0  0  0  0  0  0  0  0  0
  1  3  4  0
  1 14  4  0
  1  2  1  0
  3  4  4  0
  4  5  4  0
  5  6  4  0
  5 22  1  0
  6  7  1  0
  6 14  4  0
  7  8  1  0
  8  9  4  0
  8 12  4  0
  9 10  4  0
 10 11  4  0
 11 12  4  0
 12 13  1  0
 13 14  1  0
 13 15  1  6
 15 16  4  0
 15 20  4  0
 16 17  4  0
 17 18  4  0
 17 21  1  0
 18 19  4  0
 19 20  4  0
 23 24  4  0
 24 25  4  0
 25 26  1  0
 26 27  1  0
 27 28  1  0
 28 29  1  0
 29 30  1  0
 29 31  2  0
 25 32  4  0
 32 33  1  0
  2 23  4  0
  2 32  4  0
M  END
$$$$

     RDKit          3D

 33 37  0  0  0  0  0  0  0  0999 V2000
   -7.6410    4.9930    6.8080 C   0  0  0  0  0  0  0  0  0  1  0  0
   -7.7310    4.0530    5.7140 C   0  0  0  0  0  0  0  0  0  2  0  0
   -6.4520    5.6300    6.8680 N   0  0  0  0  0  0  0  0  0  0  0  0
   -6.2260    6.5240    7.8670 N   0  0  0  0  0  0  0  0  0  0  0  0
   -7.1930    6.7500    8.7820 C   0  0  0  0  0  0  0  0  0  0  0  0
   -8.4240    6.1170    8.7580 C   0  0  0  0  0  0  0  0  0  0  0  0
   -9.3950    6.3570    9.7450 N   0  0  0  0  0  0  0  0  0  0  0  0
  -10.5620    5.6840    9.7600 C   0  0  0  0  0  0  0  0  0  0  0  0
  -11.5770    5.6820   10.5960 N   0  0  0  0  0  0  0  0  0  0  0  0
  -12.4690    4.7490   10.1080 N   0  0  0  0  0  0  0  0  0  0  0  0
  -12.0160    4.1880    8.9920 N   0  0  0  0  0  0  0  0  0  0  0  0
  -10.8400    4.7900    8.7610 N   0  0  0  0  0  0  0  0  0  0  0  0
   -9.9950    4.4790    7.6090 C   0  0  0  0  0  0  0  0  0  0  0  0
   -8.6630    5.2070    7.7200 C   0  0  0  0  0  0  0  0  0  0  0  0
  -10.7490    4.8610    6.3730 C   0  0  0  0  0  0  0  0  0  0  0  0
  -11.0350    6.2020    6.1170 C   0  0  0  0  0  0  0  0  0  0  0  0
  -11.7370    6.5580    4.9650 C   0  0  0  0  0  0  0  0  0  0  0  0
  -12.1550    5.5730    4.0710 C   0  0  0  0  0  0  0  0  0  0  0  0
  -11.8700    4.2310    4.3270 C   0  0  0  0  0  0  0  0  0  0  0  0
  -11.1660    3.8760    5.4790 C   0  0  0  0  0  0  0  0  0  0  0  0
  -12.0160    7.8660    4.7150 O   0  0  0  0  0  0  0  0  0  0  0  0
   -6.8990    7.6510    9.7710 O   0  0  0  0  0  0  0  0  0  0  0  0
   -6.7932    3.1925    5.2679 N   0  0  0  0  0  0  0  0  0  0  0  0
   -7.2857    2.4451    4.2880 N   0  0  0  0  0  0  0  0  0  0  0  0
   -8.5696    2.8142    4.1207 C   0  0  0  0  0  0  0  0  0  0  0  0
   -9.6473    2.1266    2.8640 S   0  0  0  0  0  0  0  0  0  0  0  0
   -9.1717    3.3694    1.6131 C   0  0  0  0  0  0  0  0  0  0  0  0
   -9.9199    3.1335    0.3001 C   0  0  0  0  0  0  0  0  0  0  0  0
   -9.4999    1.8489   -0.3553 C   0  0  0  0  0  0  0  0  0  0  0  0
  -10.4335    0.7828   -0.5295 N   0  0  0  0  0  0  0  0  0  0  0  0
   -8.3152    1.7119   -0.7623 O   0  0  0  0  0  0  0  0  0  0  0  0
   -8.9116    3.7858    4.9833 N   0  0  0  0  0  0  0  0  0  0  0  0
  -10.1057    4.5258    4.9927 N   0  0  0  0  0  0  0  0  0  0  0  0
  1  3  4  0
  1 14  4  0
  1  2  1  0
  3  4  4  0
  4  5  4  0
  5  6  4  0
  5 22  1  0
  6  7  1  0
  6 14  4  0
  7  8  1  0
  8  9  4  0
  8 12  4  0
  9 10  4  0
 10 11  4  0
 11 12  4  0
 12 13  1  0
 13 14  1  0
 13 15  1  6
 15 16  4  0
 15 20  4  0
 16 17  4  0
 17 18  4  0
 17 21  1  0
 18 19  4  0
 19 20  4  0
 23 24  4  0
 24 25  4  0
 25 26  1  0
 26 27  1  0
 27 28  1  0
 28 29  1  0
 29 30  1  0
 29 31  2  0
 25 32  4  0
 32 33  1  0
  2 23  4  0
  2 32  4  0
M  END
$$$$

     RDKit          3D

 33 37  0  0  0  0  0  0  0  0999 V2000
   -7.6410    4.9930    6.8080 C   0  0  0  0  0  0  0  0  0  1  0  0
   -7.7310    4.0530    5.7140 C   0  0  0  0  0  0  0  0  0  2  0  0
   -6.4520    5.6300    6.8680 N   0  0  0  0  0  0  0  0  0  0  0  0
   -6.2260    6.5240    7.8670 N   0  0  0  0  0  0  0  0  0  0  0  0
   -7.1930    6.7500    8.7820 C   0  0  0  0  0  0  0  0  0  0  0  0
   -8.4240    6.1170    8.7580 C   0  0  0  0  0  0  0  0  0  0  0  0
   -9.3950    6.3570    9.7450 N   0  0  0  0  0  0  0  0  0  0  0  0
  -10.5620    5.6840    9.7600 C   0  0  0  0  0  0  0  0  0  0  0  0
  -11.5770    5.6820   10.5960 N   0  0  0  0  0  0  0  0  0  0  0  0
  -12.4690    4.7490   10.1080 N   0  0  0  0  0  0  0  0  0  0  0  0
  -12.0160    4.1880    8.9920 N   0  0  0  0  0  0  0  0  0  0  0  0
  -10.8400    4.7900    8.7610 N   0  0  0  0  0  0  0  0  0  0  0  0
   -9.9950    4.4790    7.6090 C   0  0  0  0  0  0  0  0  0  0  0  0
   -8.6630    5.2070    7.7200 C   0  0  0  0  0  0  0  0  0  0  0  0
  -10.7490    4.8610    6.3730 C   0  0  0  0  0  0  0  0  0  0  0  0
  -11.0350    6.2020    6.1170 C   0  0  0  0  0  0  0  0  0  0  0  0
  -11.7370    6.5580    4.9650 C   0  0  0  0  0  0  0  0  0  0  0  0
  -12.1550    5.5730    4.0710 C   0  0  0  0  0  0  0  0  0  0  0  0
  -11.8700    4.2310    4.3270 C   0  0  0  0  0  0  0  0  0  0  0  0
  -11.1660    3.8760    5.4790 C   0  0  0  0  0  0  0  0  0  0  0  0
  -12.0160    7.8660    4.7150 O   0  0  0  0  0  0  0  0  0  0  0  0
   -6.8990    7.6510    9.7710 O   0  0  0  0  0  0  0  0  0  0  0  0
   -6.7950    3.1889    5.2714 N   0  0  0  0  0  0  0  0  0  0  0  0
   -7.2898    2.4370    4.2961 N   0  0  0  0  0  0  0  0  0  0  0  0
   -8.5742    2.8051    4.1298 C   0  0  0  0  0  0  0  0  0  0  0  0
   -9.6573    2.1110    2.8785 S   0  0  0  0  0  0  0  0  0  0  0  0
  -10.4069    0.8745    3.9945 C   0  0  0  0  0  0  0  0  0  0  0  0
   -9.4848   -0.3337    4.1685 C   0  0  0  0  0  0  0  0  0  0  0  0
  -10.1365   -1.3823    5.0210 C   0  0  0  0  0  0  0  0  0  0  0  0
  -10.4613   -2.6626    4.4788 N   0  0  0  0  0  0  0  0  0  0  0  0
  -10.3924   -1.1350    6.2300 O   0  0  0  0  0  0  0  0  0  0  0  0
   -8.9118    3.7851    4.9842 N   0  0  0  0  0  0  0  0  0  0  0  0
  -10.1086    4.5207    4.9974 N   0  0  0  0  0  0  0  0  0  0  0  0
  1  3  4  0
  1 14  4  0
  1  2  1  0
  3  4  4  0
  4  5  4  0
  5  6  4  0
  5 22  1  0
  6  7  1  0
  6 14  4  0
  7  8  1  0
  8  9  4  0
  8 12  4  0
  9 10  4  0
 10 11  4  0
 11 12  4  0
 12 13  1  0
 13 14  1  0
 13 15  1  6
 15 16  4  0
 15 20  4  0
 16 17  4  0
 17 18  4  0
 17 21  1  0
 18 19  4  0
 19 20  4  0
 23 24  4  0
 24 25  4  0
 25 26  1  0
 26 27  1  0
 27 28  1  0
 28 29  1  0
 29 30  1  0
 29 31  2  0
 25 32  4  0
 32 33  1  0
  2 23  4  0
  2 32  4  0
M  END
$$$$

     RDKit          3D

 33 37  0  0  0  0  0  0  0  0999 V2000
   -7.6410    4.9930    6.8080 C   0  0  0  0  0  0  0  0  0  1  0  0
   -7.7310    4.0530    5.7140 C   0  0  0  0  0  0  0  0  0  2  0  0
   -6.4520    5.6300    6.8680 N   0  0  0  0  0  0  0  0  0  0  0  0
   -6.2260    6.5240    7.8670 N   0  0  0  0  0  0  0  0  0  0  0  0
   -7.1930    6.7500    8.7820 C   0  0  0  0  0  0  0  0  0  0  0  0
   -8.4240    6.1170    8.7580 C   0  0  0  0  0  0  0  0  0  0  0  0
   -9.3950    6.3570    9.7450 N   0  0  0  0  0  0  0  0  0  0  0  0
  -10.5620    5.6840    9.7600 C   0  0  0  0  0  0  0  0  0  0  0  0
  -11.5770    5.6820   10.5960 N   0  0  0  0  0  0  0  0  0  0  0  0
  -12.4690    4.7490   10.1080 N   0  0  0  0  0  0  0  0  0  0  0  0
  -12.0160    4.1880    8.9920 N   0  0  0  0  0  0  0  0  0  0  0  0
  -10.8400    4.7900    8.7610 N   0  0  0  0  0  0  0  0  0  0  0  0
   -9.9950    4.4790    7.6090 C   0  0  0  0  0  0  0  0  0  0  0  0
   -8.6630    5.2070    7.7200 C   0  0  0  0  0  0  0  0  0  0  0  0
  -10.7490    4.8610    6.3730 C   0  0  0  0  0  0  0  0  0  0  0  0
  -11.0350    6.2020    6.1170 C   0  0  0  0  0  0  0  0  0  0  0  0
  -11.7370    6.5580    4.9650 C   0  0  0  0  0  0  0  0  0  0  0  0
  -12.1550    5.5730    4.0710 C   0  0  0  0  0  0  0  0  0  0  0  0
  -11.8700    4.2310    4.3270 C   0  0  0  0  0  0  0  0  0  0  0  0
  -11.1660    3.8760    5.4790 C   0  0  0  0  0  0  0  0  0  0  0  0
  -12.0160    7.8660    4.7150 O   0  0  0  0  0  0  0  0  0  0  0  0
   -6.8990    7.6510    9.7710 O   0  0  0  0  0  0  0  0  0  0  0  0
   -6.7949    3.1889    5.2712 N   0  0  0  0  0  0  0  0  0  0  0  0
   -7.2896    2.4376    4.2953 N   0  0  0  0  0  0  0  0  0  0  0  0
   -8.5740    2.8058    4.1291 C   0  0  0  0  0  0  0  0  0  0  0  0
   -9.6551    2.1153    2.8744 S   0  0  0  0  0  0  0  0  0  0  0  0
  -10.4152    0.8768    3.9872 C   0  0  0  0  0  0  0  0  0  0  0  0
   -9.4965   -0.3265    4.2271 C   0  0  0  0  0  0  0  0  0  0  0  0
   -9.1954   -1.0653    2.9553 C   0  0  0  0  0  0  0  0  0  0  0  0
  -10.2304   -1.7536    2.2530 N   0  0  0  0  0  0  0  0  0  0  0  0
   -8.0172   -1.0891    2.5093 O   0  0  0  0  0  0  0  0  0  0  0  0
   -8.9118    3.7855    4.9838 N   0  0  0  0  0  0  0  0  0  0  0  0
  -10.1077    4.5223    4.9960 N   0  0  0  0  0  0  0  0  0  0  0  0
  1  3  4  0
  1 14  4  0
  1  2  1  0
  3  4  4  0
  4  5  4  0
  5  6  4  0
  5 22  1  0
  6  7  1  0
  6 14  4  0
  7  8  1  0
  8  9  4  0
  8 12  4  0
  9 10  4  0
 10 11  4  0
 11 12  4  0
 12 13  1  0
 13 14  1  0
 13 15  1  6
 15 16  4  0
 15 20  4  0
 16 17  4  0
 17 18  4  0
 17 21  1  0
 18 19  4  0
 19 20  4  0
 23 24  4  0
 24 25  4  0
 25 26  1  0
 26 27  1  0
 27 28  1  0
 28 29  1  0
 29 30  1  0
 29 31  2  0
 25 32  4  0
 32 33  1  0
  2 23  4  0
  2 32  4  0
M  END
$$$$

     RDKit          3D

 32 37  0  0  0  0  0  0  0  0999 V2000
   -7.6410    4.9930    6.8080 C   0  0  0  0  0  0  0  0  0  1  0  0
   -7.7310    4.0530    5.7140 C   0  0  0  0  0  0  0  0  0  2  0  0
   -6.4520    5.6300    6.8680 N   0  0  0  0  0  0  0  0  0  0  0  0
   -6.2260    6.5240    7.8670 N   0  0  0  0  0  0  0  0  0  0  0  0
   -7.1930    6.7500    8.7820 C   0  0  0  0  0  0  0  0  0  0  0  0
   -8.4240    6.1170    8.7580 C   0  0  0  0  0  0  0  0  0  0  0  0
   -9.3950    6.3570    9.7450 N   0  0  0  0  0  0  0  0  0  0  0  0
  -10.5620    5.6840    9.7600 C   0  0  0  0  0  0  0  0  0  0  0  0
  -11.5770    5.6820   10.5960 N   0  0  0  0  0  0  0  0  0  0  0  0
  -12.4690    4.7490   10.1080 N   0  0  0  0  0  0  0  0  0  0  0  0
  -12.0160    4.1880    8.9920 N   0  0  0  0  0  0  0  0  0  0  0  0
  -10.8400    4.7900    8.7610 N   0  0  0  0  0  0  0  0  0  0  0  0
   -9.9950    4.4790    7.6090 C   0  0  0  0  0  0  0  0  0  0  0  0
   -8.6630    5.2070    7.7200 C   0  0  0  0  0  0  0  0  0  0  0  0
  -10.7490    4.8610    6.3730 C   0  0  0  0  0  0  0  0  0  0  0  0
  -11.0350    6.2020    6.1170 C   0  0  0  0  0  0  0  0  0  0  0  0
  -11.7370    6.5580    4.9650 C   0  0  0  0  0  0  0  0  0  0  0  0
  -12.1550    5.5730    4.0710 C   0  0  0  0  0  0  0  0  0  0  0  0
  -11.8700    4.2310    4.3270 C   0  0  0  0  0  0  0  0  0  0  0  0
  -11.1660    3.8760    5.4790 C   0  0  0  0  0  0  0  0  0  0  0  0
  -12.0160    7.8660    4.7150 O   0  0  0  0  0  0  0  0  0  0  0  0
   -6.8990    7.6510    9.7710 O   0  0  0  0  0  0  0  0  0  0  0  0
   -6.9026    2.9987    5.3448 C   0  0  0  0  0  0  0  0  0  0  0  0
   -7.3911    2.2862    4.3021 N   0  0  0  0  0  0  0  0  0  0  0  0
   -6.7598    1.1133    3.6968 C   0  0  0  0  0  0  0  0  0  0  0  0
   -7.3301   -0.1649    4.2993 C   0  0  0  0  0  0  0  0  0  0  0  0
   -8.5817    2.8394    3.9877 C   0  0  0  0  0  0  0  0  0  0  0  0
   -9.4658    2.4636    2.9714 C   0  0  0  0  0  0  0  0  0  0  0  0
  -10.6372    3.2227    2.8021 C   0  0  0  0  0  0  0  0  0  0  0  0
  -10.8946    4.3352    3.6313 C   0  0  0  0  0  0  0  0  0  0  0  0
   -9.9896    4.6918    4.6461 C   0  0  0  0  0  0  0  0  0  0  0  0
   -8.8496    3.9060    4.8119 C   0  0  0  0  0  0  0  0  0  0  0  0
  1  3  4  0
  1 14  4  0
  1  2  1  0
  3  4  4  0
  4  5  4  0
  5  6  4  0
  5 22  1  0
  6  7  1  0
  6 14  4  0
  7  8  1  0
  8  9  4  0
  8 12  4  0
  9 10  4  0
 10 11  4  0
 11 12  4  0
 12 13  1  0
 13 14  1  0
 13 15  1  6
 15 16  4  0
 15 20  4  0
 16 17  4  0
 17 18  4  0
 17 21  1  0
 18 19  4  0
 19 20  4  0
 23 24  4  0
 24 25  1  0
 25 26  1  0
 24 27  4  0
 27 28  4  0
 28 29  4  0
 29 30  4  0
 30 31  4  0
 31 32  4  0
 32 27  4  0
  2 23  4  0
  2 32  4  0
M  END
$$$$

     RDKit          3D

 45 51  0  0  0  0  0  0  0  0999 V2000
   -7.6410    4.9930    6.8080 C   0  0  0  0  0  0  0  0  0  1  0  0
   -7.7310    4.0530    5.7140 C   0  0  0  0  0  0  0  0  0  2  0  0
   -6.4520    5.6300    6.8680 N   0  0  0  0  0  0  0  0  0  0  0  0
   -6.2260    6.5240    7.8670 N   0  0  0  0  0  0  0  0  0  0  0  0
   -7.1930    6.7500    8.7820 C   0  0  0  0  0  0  0  0  0  0  0  0
   -8.4240    6.1170    8.7580 C   0  0  0  0  0  0  0  0  0  0  0  0
   -9.3950    6.3570    9.7450 N   0  0  0  0  0  0  0  0  0  0  0  0
  -10.5620    5.6840    9.7600 C   0  0  0  0  0  0  0  0  0  0  0  0
  -11.5770    5.6820   10.5960 N   0  0  0  0  0  0  0  0  0  0  0  0
  -12.4690    4.7490   10.1080 N   0  0  0  0  0  0  0  0  0  0  0  0
  -12.0160    4.1880    8.9920 N   0  0  0  0  0  0  0  0  0  0  0  0
  -10.8400    4.7900    8.7610 N   0  0  0  0  0  0  0  0  0  0  0  0
   -9.9950    4.4790    7.6090 C   0  0  0  0  0  0  0  0  0  0  0  0
   -8.6630    5.2070    7.7200 C   0  0  0  0  0  0  0  0  0  0  0  0
  -10.7490    4.8610    6.3730 C   0  0  0  0  0  0  0  0  0  0  0  0
  -11.0350    6.2020    6.1170 C   0  0  0  0  0  0  0  0  0  0  0  0
  -11.7370    6.5580    4.9650 C   0  0  0  0  0  0  0  0  0  0  0  0
  -12.1550    5.5730    4.0710 C   0  0  0  0  0  0  0  0  0  0  0  0
  -11.8700    4.2310    4.3270 C   0  0  0  0  0  0  0  0  0  0  0  0
  -11.1660    3.8760    5.4790 C   0  0  0  0  0  0  0  0  0  0  0  0
  -12.0160    7.8660    4.7150 O   0  0  0  0  0  0  0  0  0  0  0  0
   -6.8990    7.6510    9.7710 O   0  0  0  0  0  0  0  0  0  0  0  0
   -6.7594    3.1768    5.3429 N   0  0  0  0  0  0  0  0  0  0  0  0
   -7.0907    2.3559    4.3227 C   0  0  0  0  0  0  0  0  0  0  0  0
   -6.2159    1.3602    3.7798 N   0  0  0  0  0  0  0  0  0  0  0  0
   -4.8236    1.2637    4.1232 C   0  0  0  0  0  0  0  0  0  0  0  0
   -4.2403    2.2446    4.6618 O   0  0  0  0  0  0  0  0  0  0  0  0
   -4.0506    0.0357    3.8193 C   0  0  0  0  0  0  0  0  0  0  0  0
   -2.6529    0.0983    3.6774 C   0  0  0  0  0  0  0  0  0  0  0  0
   -1.9154   -1.0548    3.3932 C   0  0  0  0  0  0  0  0  0  0  0  0
   -2.5612   -2.2925    3.2541 C   0  0  0  0  0  0  0  0  0  0  0  0
   -1.7758   -3.5397    2.9628 C   0  0  0  0  0  0  0  0  0  0  0  0
   -2.3085   -4.1757    1.8035 O   0  0  0  0  0  0  0  0  0  0  0  0
   -1.8288   -5.3782    1.2618 C   0  0  0  0  0  0  0  0  0  0  0  0
   -0.7231   -6.0599    1.8093 C   0  0  0  0  0  0  0  0  0  0  0  0
   -0.2769   -7.2545    1.2358 C   0  0  0  0  0  0  0  0  0  0  0  0
   -0.9270   -7.7805    0.1175 C   0  0  0  0  0  0  0  0  0  0  0  0
   -2.0246   -7.1131   -0.4310 C   0  0  0  0  0  0  0  0  0  0  0  0
   -2.4754   -5.9154    0.1361 C   0  0  0  0  0  0  0  0  0  0  0  0
   -3.9831   -5.0251   -0.6368 Br  0  0  0  0  0  0  0  0  0  0  0  0
   -3.9525   -2.3629    3.4180 C   0  0  0  0  0  0  0  0  0  0  0  0
   -4.6920   -1.2093    3.6941 C   0  0  0  0  0  0  0  0  0  0  0  0
   -8.6653    2.6124    3.7965 S   0  0  0  0  0  0  0  0  0  0  0  0
   -8.9399    3.8477    4.9075 C   0  0  0  0  0  0  0  0  0  0  0  0
  -10.2160    4.6241    4.9934 C   0  0  0  0  0  0  0  0  0  0  0  0
  1  3  4  0
  1 14  4  0
  1  2  1  0
  3  4  4  0
  4  5  4  0
  5  6  4  0
  5 22  1  0
  6  7  1  0
  6 14  4  0
  7  8  1  0
  8  9  4  0
  8 12  4  0
  9 10  4  0
 10 11  4  0
 11 12  4  0
 12 13  1  0
 13 14  1  0
 13 15  1  6
 15 16  4  0
 15 20  4  0
 16 17  4  0
 17 18  4  0
 17 21  1  0
 18 19  4  0
 19 20  4  0
 23 24  4  0
 24 25  1  0
 25 26  1  0
 26 27  2  0
 26 28  1  0
 28 29  4  0
 29 30  4  0
 30 31  4  0
 31 32  1  0
 32 33  1  0
 33 34  1  0
 34 35  4  0
 35 36  4  0
 36 37  4  0
 37 38  4  0
 38 39  4  0
 39 40  1  0
 31 41  4  0
 41 42  4  0
 24 43  4  0
 43 44  4  0
 44 45  1  0
 42 28  4  0
 39 34  4  0
  2 23  4  0
  2 44  4  0
M  END
$$$$

     RDKit          3D

 45 51  0  0  0  0  0  0  0  0999 V2000
   -7.6410    4.9930    6.8080 C   0  0  0  0  0  0  0  0  0  1  0  0
   -7.7310    4.0530    5.7140 C   0  0  0  0  0  0  0  0  0  2  0  0
   -6.4520    5.6300    6.8680 N   0  0  0  0  0  0  0  0  0  0  0  0
   -6.2260    6.5240    7.8670 N   0  0  0  0  0  0  0  0  0  0  0  0
   -7.1930    6.7500    8.7820 C   0  0  0  0  0  0  0  0  0  0  0  0
   -8.4240    6.1170    8.7580 C   0  0  0  0  0  0  0  0  0  0  0  0
   -9.3950    6.3570    9.7450 N   0  0  0  0  0  0  0  0  0  0  0  0
  -10.5620    5.6840    9.7600 C   0  0  0  0  0  0  0  0  0  0  0  0
  -11.5770    5.6820   10.5960 N   0  0  0  0  0  0  0  0  0  0  0  0
  -12.4690    4.7490   10.1080 N   0  0  0  0  0  0  0  0  0  0  0  0
  -12.0160    4.1880    8.9920 N   0  0  0  0  0  0  0  0  0  0  0  0
  -10.8400    4.7900    8.7610 N   0  0  0  0  0  0  0  0  0  0  0  0
   -9.9950    4.4790    7.6090 C   0  0  0  0  0  0  0  0  0  0  0  0
   -8.6630    5.2070    7.7200 C   0  0  0  0  0  0  0  0  0  0  0  0
  -10.7490    4.8610    6.3730 C   0  0  0  0  0  0  0  0  0  0  0  0
  -11.0350    6.2020    6.1170 C   0  0  0  0  0  0  0  0  0  0  0  0
  -11.7370    6.5580    4.9650 C   0  0  0  0  0  0  0  0  0  0  0  0
  -12.1550    5.5730    4.0710 C   0  0  0  0  0  0  0  0  0  0  0  0
  -11.8700    4.2310    4.3270 C   0  0  0  0  0  0  0  0  0  0  0  0
  -11.1660    3.8760    5.4790 C   0  0  0  0  0  0  0  0  0  0  0  0
  -12.0160    7.8660    4.7150 O   0  0  0  0  0  0  0  0  0  0  0  0
   -6.8990    7.6510    9.7710 O   0  0  0  0  0  0  0  0  0  0  0  0
   -6.8165    3.0854    5.4283 N   0  0  0  0  0  0  0  0  0  0  0  0
   -7.1268    2.3044    4.3710 C   0  0  0  0  0  0  0  0  0  0  0  0
   -6.2878    1.2257    3.9360 N   0  0  0  0  0  0  0  0  0  0  0  0
   -6.4831    0.5056    2.7088 C   0  0  0  0  0  0  0  0  0  0  0  0
   -7.0741    1.0601    1.7442 O   0  0  0  0  0  0  0  0  0  0  0  0
   -5.9645   -0.8744    2.5535 C   0  0  0  0  0  0  0  0  0  0  0  0
   -5.7499   -1.4129    1.2720 C   0  0  0  0  0  0  0  0  0  0  0  0
   -5.2652   -2.7155    1.1222 C   0  0  0  0  0  0  0  0  0  0  0  0
   -4.9873   -3.5023    2.2491 C   0  0  0  0  0  0  0  0  0  0  0  0
   -4.5092   -4.9150    2.0832 C   0  0  0  0  0  0  0  0  0  0  0  0
   -5.6279   -5.7585    1.8284 O   0  0  0  0  0  0  0  0  0  0  0  0
   -5.5527   -7.1491    1.6487 C   0  0  0  0  0  0  0  0  0  0  0  0
   -4.3311   -7.8493    1.7253 C   0  0  0  0  0  0  0  0  0  0  0  0
   -4.3024   -9.2363    1.5539 C   0  0  0  0  0  0  0  0  0  0  0  0
   -5.4851   -9.9358    1.3034 C   0  0  0  0  0  0  0  0  0  0  0  0
   -6.6989   -9.2504    1.2179 C   0  0  0  0  0  0  0  0  0  0  0  0
   -6.7354   -7.8616    1.3877 C   0  0  0  0  0  0  0  0  0  0  0  0
   -8.4128   -6.9524    1.2639 Br  0  0  0  0  0  0  0  0  0  0  0  0
   -5.2285   -2.9803    3.5278 C   0  0  0  0  0  0  0  0  0  0  0  0
   -5.7061   -1.6759    3.6800 C   0  0  0  0  0  0  0  0  0  0  0  0
   -8.6184    2.7241    3.7084 S   0  0  0  0  0  0  0  0  0  0  0  0
   -8.8827    3.9592    4.8199 C   0  0  0  0  0  0  0  0  0  0  0  0
  -10.0184    4.9296    4.7364 C   0  0  0  0  0  0  0  0  0  0  0  0
  1  3  4  0
  1 14  4  0
  1  2  1  0
  3  4  4  0
  4  5  4  0
  5  6  4  0
  5 22  1  0
  6  7  1  0
  6 14  4  0
  7  8  1  0
  8  9  4  0
  8 12  4  0
  9 10  4  0
 10 11  4  0
 11 12  4  0
 12 13  1  0
 13 14  1  0
 13 15  1  6
 15 16  4  0
 15 20  4  0
 16 17  4  0
 17 18  4  0
 17 21  1  0
 18 19  4  0
 19 20  4  0
 23 24  4  0
 24 25  1  0
 25 26  1  0
 26 27  2  0
 26 28  1  0
 28 29  4  0
 29 30  4  0
 30 31  4  0
 31 32  1  0
 32 33  1  0
 33 34  1  0
 34 35  4  0
 35 36  4  0
 36 37  4  0
 37 38  4  0
 38 39  4  0
 39 40  1  0
 31 41  4  0
 41 42  4  0
 24 43  4  0
 43 44  4  0
 44 45  1  0
 42 28  4  0
 39 34  4  0
  2 23  4  0
  2 44  4  0
M  END
$$$$

     RDKit          3D

 46 51  0  0  0  0  0  0  0  0999 V2000
   -7.6410    4.9930    6.8080 C   0  0  0  0  0  0  0  0  0  1  0  0
   -7.7310    4.0530    5.7140 C   0  0  0  0  0  0  0  0  0  2  0  0
   -6.4520    5.6300    6.8680 N   0  0  0  0  0  0  0  0  0  0  0  0
   -6.2260    6.5240    7.8670 N   0  0  0  0  0  0  0  0  0  0  0  0
   -7.1930    6.7500    8.7820 C   0  0  0  0  0  0  0  0  0  0  0  0
   -8.4240    6.1170    8.7580 C   0  0  0  0  0  0  0  0  0  0  0  0
   -9.3950    6.3570    9.7450 N   0  0  0  0  0  0  0  0  0  0  0  0
  -10.5620    5.6840    9.7600 C   0  0  0  0  0  0  0  0  0  0  0  0
  -11.5770    5.6820   10.5960 N   0  0  0  0  0  0  0  0  0  0  0  0
  -12.4690    4.7490   10.1080 N   0  0  0  0  0  0  0  0  0  0  0  0
  -12.0160    4.1880    8.9920 N   0  0  0  0  0  0  0  0  0  0  0  0
  -10.8400    4.7900    8.7610 N   0  0  0  0  0  0  0  0  0  0  0  0
   -9.9950    4.4790    7.6090 C   0  0  0  0  0  0  0  0  0  0  0  0
   -8.6630    5.2070    7.7200 C   0  0  0  0  0  0  0  0  0  0  0  0
  -10.7490    4.8610    6.3730 C   0  0  0  0  0  0  0  0  0  0  0  0
  -11.0350    6.2020    6.1170 C   0  0  0  0  0  0  0  0  0  0  0  0
  -11.7370    6.5580    4.9650 C   0  0  0  0  0  0  0  0  0  0  0  0
  -12.1550    5.5730    4.0710 C   0  0  0  0  0  0  0  0  0  0  0  0
  -11.8700    4.2310    4.3270 C   0  0  0  0  0  0  0  0  0  0  0  0
  -11.1660    3.8760    5.4790 C   0  0  0  0  0  0  0  0  0  0  0  0
  -12.0160    7.8660    4.7150 O   0  0  0  0  0  0  0  0  0  0  0  0
   -6.8990    7.6510    9.7710 O   0  0  0  0  0  0  0  0  0  0  0  0
   -6.8667    3.0586    5.4143 N   0  0  0  0  0  0  0  0  0  0  0  0
   -7.2955    2.4003    4.3482 N   0  0  0  0  0  0  0  0  0  0  0  0
   -8.4613    2.9641    3.9835 C   0  0  0  0  0  0  0  0  0  0  0  0
   -9.3951    2.4394    2.5448 S   0  0  0  0  0  0  0  0  0  0  0  0
  -10.4260    1.2806    3.5004 C   0  0  0  0  0  0  0  0  0  0  0  0
  -11.3130    0.5130    2.5718 C   0  0  0  0  0  0  0  0  0  0  0  0
  -12.1767    1.1300    1.8918 O   0  0  0  0  0  0  0  0  0  0  0  0
  -11.1903   -0.9143    2.4680 N   0  0  0  0  0  0  0  0  0  0  0  0
  -11.9028   -1.6942    1.4463 C   0  0  0  0  0  0  0  0  0  0  0  0
  -11.4224   -1.3656    0.0075 C   0  0  0  0  0  0  0  0  0  0  0  0
   -9.9645   -1.7495   -0.3603 C   0  0  0  0  0  0  0  0  0  0  0  0
   -9.7642   -1.6069   -1.8762 C   0  0  0  0  0  0  0  0  0  0  0  0
   -8.9249   -0.8872    0.3725 C   0  0  0  0  0  0  0  0  0  0  0  0
  -11.8718   -3.1894    1.7354 C   0  0  0  0  0  0  0  0  0  0  0  0
  -13.0447   -3.9496    1.5662 C   0  0  0  0  0  0  0  0  0  0  0  0
  -13.0428   -5.3254    1.8137 C   0  0  0  0  0  0  0  0  0  0  0  0
  -11.8725   -5.9610    2.2312 C   0  0  0  0  0  0  0  0  0  0  0  0
  -10.6995   -5.2227    2.3965 C   0  0  0  0  0  0  0  0  0  0  0  0
  -10.6949   -3.8468    2.1495 C   0  0  0  0  0  0  0  0  0  0  0  0
   -8.8073    3.9745    4.8073 N   0  0  0  0  0  0  0  0  0  0  0  0
   -9.8935    4.9421    4.6265 C   0  0  0  0  0  0  0  0  0  0  0  0
   -9.3668    6.1953    4.0030 C   0  0  0  0  0  0  0  0  0  0  0  0
   -9.4153    7.2855    4.6306 O   0  0  0  0  0  0  0  0  0  0  0  0
   -8.8187    6.1593    2.7270 O   0  0  0  0  0  0  0  0  0  0  0  0
  1  3  4  0
  1 14  4  0
  1  2  1  0
  3  4  4  0
  4  5  4  0
  5  6  4  0
  5 22  1  0
  6  7  1  0
  6 14  4  0
  7  8  1  0
  8  9  4  0
  8 12  4  0
  9 10  4  0
 10 11  4  0
 11 12  4  0
 12 13  1  0
 13 14  1  0
 13 15  1  6
 15 16  4  0
 15 20  4  0
 16 17  4  0
 17 18  4  0
 17 21  1  0
 18 19  4  0
 19 20  4  0
 23 24  4  0
 24 25  4  0
 25 26  1  0
 26 27  1  0
 27 28  1  0
 28 29  2  0
 28 30  1  0
 30 31  1  0
 31 32  1  0
 32 33  1  0
 33 34  1  0
 33 35  1  0
 31 36  1  0
 36 37  4  0
 37 38  4  0
 38 39  4  0
 39 40  4  0
 40 41  4  0
 25 42  4  0
 42 43  1  0
 43 44  1  0
 44 45  2  0
 44 46  1  0
 41 36  4  0
  2 23  4  0
  2 42  4  0
M  CHG  1  46  -1
M  END
$$$$

     RDKit          3D

 47 53  0  0  0  0  0  0  0  0999 V2000
   -7.6410    4.9930    6.8080 C   0  0  0  0  0  0  0  0  0  1  0  0
   -7.7310    4.0530    5.7140 C   0  0  0  0  0  0  0  0  0  2  0  0
   -6.4520    5.6300    6.8680 N   0  0  0  0  0  0  0  0  0  0  0  0
   -6.2260    6.5240    7.8670 N   0  0  0  0  0  0  0  0  0  0  0  0
   -7.1930    6.7500    8.7820 C   0  0  0  0  0  0  0  0  0  0  0  0
   -8.4240    6.1170    8.7580 C   0  0  0  0  0  0  0  0  0  0  0  0
   -9.3950    6.3570    9.7450 N   0  0  0  0  0  0  0  0  0  0  0  0
  -10.5620    5.6840    9.7600 C   0  0  0  0  0  0  0  0  0  0  0  0
  -11.5770    5.6820   10.5960 N   0  0  0  0  0  0  0  0  0  0  0  0
  -12.4690    4.7490   10.1080 N   0  0  0  0  0  0  0  0  0  0  0  0
  -12.0160    4.1880    8.9920 N   0  0  0  0  0  0  0  0  0  0  0  0
  -10.8400    4.7900    8.7610 N   0  0  0  0  0  0  0  0  0  0  0  0
   -9.9950    4.4790    7.6090 C   0  0  0  0  0  0  0  0  0  0  0  0
   -8.6630    5.2070    7.7200 C   0  0  0  0  0  0  0  0  0  0  0  0
  -10.7490    4.8610    6.3730 C   0  0  0  0  0  0  0  0  0  0  0  0
  -11.0350    6.2020    6.1170 C   0  0  0  0  0  0  0  0  0  0  0  0
  -11.7370    6.5580    4.9650 C   0  0  0  0  0  0  0  0  0  0  0  0
  -12.1550    5.5730    4.0710 C   0  0  0  0  0  0  0  0  0  0  0  0
  -11.8700    4.2310    4.3270 C   0  0  0  0  0  0  0  0  0  0  0  0
  -11.1660    3.8760    5.4790 C   0  0  0  0  0  0  0  0  0  0  0  0
  -12.0160    7.8660    4.7150 O   0  0  0  0  0  0  0  0  0  0  0  0
   -6.8990    7.6510    9.7710 O   0  0  0  0  0  0  0  0  0  0  0  0
   -6.7681    3.2618    5.1334 C   0  0  0  0  0  0  0  0  0  0  0  0
   -7.3523    2.4545    4.1769 C   0  0  0  0  0  0  0  0  0  0  0  0
   -6.5860    1.5322    3.2770 C   0  0  0  0  0  0  0  0  0  0  0  0
   -8.6837    2.6979    4.1076 N   0  0  0  0  0  0  0  0  0  0  0  0
   -9.6405    2.0905    3.1745 C   0  0  0  0  0  0  0  0  0  0  0  0
   -9.7489    2.9103    1.9233 C   0  0  0  0  0  0  0  0  0  0  0  0
   -8.7161    3.1231    1.2315 O   0  0  0  0  0  0  0  0  0  0  0  0
  -11.0194    3.4217    1.4967 N   0  0  0  0  0  0  0  0  0  0  0  0
  -11.1758    4.1913    0.2620 C   0  0  0  0  0  0  0  0  0  0  0  0
  -12.5613    3.9655   -0.3577 C   0  0  0  0  0  0  0  0  0  0  0  0
  -12.7988    2.4710   -0.6791 C   0  0  0  0  0  0  0  0  0  0  0  0
  -13.9536    2.1936   -1.5670 N   0  0  0  0  0  0  0  0  0  0  0  0
  -15.2577    2.5912   -0.9760 C   0  0  0  0  0  0  0  0  0  0  0  0
  -16.3959    2.6140   -2.0208 C   0  0  0  0  0  0  0  0  0  0  0  0
  -16.0473    1.7969   -3.1909 N   0  0  0  0  0  0  0  0  0  0  0  0
  -16.8959    0.7197   -3.6320 C   0  0  0  0  0  0  0  0  0  0  0  0
  -17.4680   -0.1675   -2.7015 C   0  0  0  0  0  0  0  0  0  0  0  0
  -18.2863   -1.2164   -3.1340 C   0  0  0  0  0  0  0  0  0  0  0  0
  -18.5322   -1.3960   -4.4969 C   0  0  0  0  0  0  0  0  0  0  0  0
  -17.9605   -0.5266   -5.4306 C   0  0  0  0  0  0  0  0  0  0  0  0
  -17.1446    0.5257   -5.0023 C   0  0  0  0  0  0  0  0  0  0  0  0
  -14.7857    2.0776   -3.8901 C   0  0  0  0  0  0  0  0  0  0  0  0
  -13.7784    2.7397   -2.9329 C   0  0  0  0  0  0  0  0  0  0  0  0
   -8.9527    3.6660    5.0187 C   0  0  0  0  0  0  0  0  0  0  0  0
  -10.3050    4.2845    5.2285 C   0  0  0  0  0  0  0  0  0  0  0  0
  1  3  4  0
  1 14  4  0
  1  2  1  0
  3  4  4  0
  4  5  4  0
  5  6  4  0
  5 22  1  0
  6  7  1  0
  6 14  4  0
  7  8  1  0
  8  9  4  0
  8 12  4  0
  9 10  4  0
 10 11  4  0
 11 12  4  0
 12 13  1  0
 13 14  1  0
 13 15  1  6
 15 16  4  0
 15 20  4  0
 16 17  4  0
 17 18  4  0
 17 21  1  0
 18 19  4  0
 19 20  4  0
 23 24  4  0
 24 25  1  0
 24 26  4  0
 26 27  1  0
 27 28  1  0
 28 29  2  0
 28 30  1  0
 30 31  1  0
 31 32  1  0
 32 33  1  0
 33 34  1  0
 34 35  1  0
 35 36  1  0
 36 37  1  0
 37 38  1  0
 38 39  4  0
 39 40  4  0
 40 41  4  0
 41 42  4  0
 42 43  4  0
 37 44  1  0
 44 45  1  0
 26 46  4  0
 46 47  1  0
 45 34  1  0
 43 38  4  0
  2 23  4  0
  2 46  4  0
M  CHG  1  34   1
M  END
$$$$

     RDKit          3D

 47 53  0  0  0  0  0  0  0  0999 V2000
   -7.6410    4.9930    6.8080 C   0  0  0  0  0  0  0  0  0  1  0  0
   -7.7310    4.0530    5.7140 C   0  0  0  0  0  0  0  0  0  2  0  0
   -6.4520    5.6300    6.8680 N   0  0  0  0  0  0  0  0  0  0  0  0
   -6.2260    6.5240    7.8670 N   0  0  0  0  0  0  0  0  0  0  0  0
   -7.1930    6.7500    8.7820 C   0  0  0  0  0  0  0  0  0  0  0  0
   -8.4240    6.1170    8.7580 C   0  0  0  0  0  0  0  0  0  0  0  0
   -9.3950    6.3570    9.7450 N   0  0  0  0  0  0  0  0  0  0  0  0
  -10.5620    5.6840    9.7600 C   0  0  0  0  0  0  0  0  0  0  0  0
  -11.5770    5.6820   10.5960 N   0  0  0  0  0  0  0  0  0  0  0  0
  -12.4690    4.7490   10.1080 N   0  0  0  0  0  0  0  0  0  0  0  0
  -12.0160    4.1880    8.9920 N   0  0  0  0  0  0  0  0  0  0  0  0
  -10.8400    4.7900    8.7610 N   0  0  0  0  0  0  0  0  0  0  0  0
   -9.9950    4.4790    7.6090 C   0  0  0  0  0  0  0  0  0  0  0  0
   -8.6630    5.2070    7.7200 C   0  0  0  0  0  0  0  0  0  0  0  0
  -10.7490    4.8610    6.3730 C   0  0  0  0  0  0  0  0  0  0  0  0
  -11.0350    6.2020    6.1170 C   0  0  0  0  0  0  0  0  0  0  0  0
  -11.7370    6.5580    4.9650 C   0  0  0  0  0  0  0  0  0  0  0  0
  -12.1550    5.5730    4.0710 C   0  0  0  0  0  0  0  0  0  0  0  0
  -11.8700    4.2310    4.3270 C   0  0  0  0  0  0  0  0  0  0  0  0
  -11.1660    3.8760    5.4790 C   0  0  0  0  0  0  0  0  0  0  0  0
  -12.0160    7.8660    4.7150 O   0  0  0  0  0  0  0  0  0  0  0  0
   -6.8990    7.6510    9.7710 O   0  0  0  0  0  0  0  0  0  0  0  0
   -6.7725    3.2343    5.1592 C   0  0  0  0  0  0  0  0  0  0  0  0
   -7.3638    2.4070    4.2242 C   0  0  0  0  0  0  0  0  0  0  0  0
   -6.6391    1.3727    3.4166 C   0  0  0  0  0  0  0  0  0  0  0  0
   -8.6902    2.6631    4.1364 N   0  0  0  0  0  0  0  0  0  0  0  0
   -9.6561    1.9063    3.3292 C   0  0  0  0  0  0  0  0  0  0  0  0
  -10.0440    0.6309    4.0318 C   0  0  0  0  0  0  0  0  0  0  0  0
  -10.2308    0.6524    5.2788 O   0  0  0  0  0  0  0  0  0  0  0  0
  -10.2304   -0.6044    3.3231 N   0  0  0  0  0  0  0  0  0  0  0  0
  -10.3727   -0.6705    1.8668 C   0  0  0  0  0  0  0  0  0  0  0  0
  -10.8281   -2.0664    1.4148 C   0  0  0  0  0  0  0  0  0  0  0  0
   -9.7103   -3.1313    1.5614 C   0  0  0  0  0  0  0  0  0  0  0  0
   -9.3072   -3.7215    0.2610 N   0  0  0  0  0  0  0  0  0  0  0  0
   -8.6573   -2.7074   -0.6183 C   0  0  0  0  0  0  0  0  0  0  0  0
   -7.7314   -3.3247   -1.6884 C   0  0  0  0  0  0  0  0  0  0  0  0
   -8.1142   -4.7144   -1.9566 N   0  0  0  0  0  0  0  0  0  0  0  0
   -8.4438   -5.1599   -3.2884 C   0  0  0  0  0  0  0  0  0  0  0  0
   -9.2735   -4.3838   -4.1193 C   0  0  0  0  0  0  0  0  0  0  0  0
   -9.5917   -4.8202   -5.4087 C   0  0  0  0  0  0  0  0  0  0  0  0
   -9.0949   -6.0390   -5.8776 C   0  0  0  0  0  0  0  0  0  0  0  0
   -8.2845   -6.8270   -5.0559 C   0  0  0  0  0  0  0  0  0  0  0  0
   -7.9633   -6.3933   -3.7654 C   0  0  0  0  0  0  0  0  0  0  0  0
   -8.1835   -5.6464   -0.8245 C   0  0  0  0  0  0  0  0  0  0  0  0
   -8.4174   -4.8837    0.4900 C   0  0  0  0  0  0  0  0  0  0  0  0
   -8.9574    3.6502    5.0281 C   0  0  0  0  0  0  0  0  0  0  0  0
  -10.3140    4.2673    5.2346 C   0  0  0  0  0  0  0  0  0  0  0  0
  1  3  4  0
  1 14  4  0
  1  2  1  0
  3  4  4  0
  4  5  4  0
  5  6  4  0
  5 22  1  0
  6  7  1  0
  6 14  4  0
  7  8  1  0
  8  9  4  0
  8 12  4  0
  9 10  4  0
 10 11  4  0
 11 12  4  0
 12 13  1  0
 13 14  1  0
 13 15  1  6
 15 16  4  0
 15 20  4  0
 16 17  4  0
 17 18  4  0
 17 21  1  0
 18 19  4  0
 19 20  4  0
 23 24  4  0
 24 25  1  0
 24 26  4  0
 26 27  1  0
 27 28  1  0
 28 29  2  0
 28 30  1  0
 30 31  1  0
 31 32  1  0
 32 33  1  0
 33 34  1  0
 34 35  1  0
 35 36  1  0
 36 37  1  0
 37 38  1  0
 38 39  4  0
 39 40  4  0
 40 41  4  0
 41 42  4  0
 42 43  4  0
 37 44  1  0
 44 45  1  0
 26 46  4  0
 46 47  1  0
 45 34  1  0
 43 38  4  0
  2 23  4  0
  2 46  4  0
M  CHG  1  34   1
M  END
$$$$

     RDKit          3D

 47 53  0  0  0  0  0  0  0  0999 V2000
   -7.6410    4.9930    6.8080 C   0  0  0  0  0  0  0  0  0  1  0  0
   -7.7310    4.0530    5.7140 C   0  0  0  0  0  0  0  0  0  2  0  0
   -6.4520    5.6300    6.8680 N   0  0  0  0  0  0  0  0  0  0  0  0
   -6.2260    6.5240    7.8670 N   0  0  0  0  0  0  0  0  0  0  0  0
   -7.1930    6.7500    8.7820 C   0  0  0  0  0  0  0  0  0  0  0  0
   -8.4240    6.1170    8.7580 C   0  0  0  0  0  0  0  0  0  0  0  0
   -9.3950    6.3570    9.7450 N   0  0  0  0  0  0  0  0  0  0  0  0
  -10.5620    5.6840    9.7600 C   0  0  0  0  0  0  0  0  0  0  0  0
  -11.5770    5.6820   10.5960 N   0  0  0  0  0  0  0  0  0  0  0  0
  -12.4690    4.7490   10.1080 N   0  0  0  0  0  0  0  0  0  0  0  0
  -12.0160    4.1880    8.9920 N   0  0  0  0  0  0  0  0  0  0  0  0
  -10.8400    4.7900    8.7610 N   0  0  0  0  0  0  0  0  0  0  0  0
   -9.9950    4.4790    7.6090 C   0  0  0  0  0  0  0  0  0  0  0  0
   -8.6630    5.2070    7.7200 C   0  0  0  0  0  0  0  0  0  0  0  0
  -10.7490    4.8610    6.3730 C   0  0  0  0  0  0  0  0  0  0  0  0
  -11.0350    6.2020    6.1170 C   0  0  0  0  0  0  0  0  0  0  0  0
  -11.7370    6.5580    4.9650 C   0  0  0  0  0  0  0  0  0  0  0  0
  -12.1550    5.5730    4.0710 C   0  0  0  0  0  0  0  0  0  0  0  0
  -11.8700    4.2310    4.3270 C   0  0  0  0  0  0  0  0  0  0  0  0
  -11.1660    3.8760    5.4790 C   0  0  0  0  0  0  0  0  0  0  0  0
  -12.0160    7.8660    4.7150 O   0  0  0  0  0  0  0  0  0  0  0  0
   -6.8990    7.6510    9.7710 O   0  0  0  0  0  0  0  0  0  0  0  0
   -6.7633    3.2808    5.1104 C   0  0  0  0  0  0  0  0  0  0  0  0
   -7.3494    2.4780    4.1490 C   0  0  0  0  0  0  0  0  0  0  0  0
   -6.6066    1.5275    3.2607 C   0  0  0  0  0  0  0  0  0  0  0  0
   -8.6866    2.6809    4.1172 N   0  0  0  0  0  0  0  0  0  0  0  0
   -9.6395    2.0618    3.1863 C   0  0  0  0  0  0  0  0  0  0  0  0
   -9.8113    2.8976    1.9421 C   0  0  0  0  0  0  0  0  0  0  0  0
   -9.1333    3.9536    1.8005 O   0  0  0  0  0  0  0  0  0  0  0  0
  -10.7007    2.5111    0.8825 N   0  0  0  0  0  0  0  0  0  0  0  0
  -11.4494    1.2552    0.8418 C   0  0  0  0  0  0  0  0  0  0  0  0
  -12.7648    1.3785    1.6196 C   0  0  0  0  0  0  0  0  0  0  0  0
  -13.6800    0.1450    1.4706 C   0  0  0  0  0  0  0  0  0  0  0  0
  -13.0918   -1.0982    2.0487 N   0  0  0  0  0  0  0  0  0  0  0  0
  -14.1250   -1.8576    2.8089 C   0  0  0  0  0  0  0  0  0  0  0  0
  -13.7599   -3.3376    2.9630 C   0  0  0  0  0  0  0  0  0  0  0  0
  -13.6575   -3.9465    1.6311 N   0  0  0  0  0  0  0  0  0  0  0  0
  -14.1066   -5.3001    1.4081 C   0  0  0  0  0  0  0  0  0  0  0  0
  -14.8239   -5.6343    0.2404 C   0  0  0  0  0  0  0  0  0  0  0  0
  -15.2578   -6.9455    0.0283 C   0  0  0  0  0  0  0  0  0  0  0  0
  -14.9740   -7.9404    0.9694 C   0  0  0  0  0  0  0  0  0  0  0  0
  -14.2689   -7.6201    2.1338 C   0  0  0  0  0  0  0  0  0  0  0  0
  -13.8362   -6.3070    2.3558 C   0  0  0  0  0  0  0  0  0  0  0  0
  -13.2416   -3.1008    0.5041 C   0  0  0  0  0  0  0  0  0  0  0  0
  -12.3982   -1.9181    1.0069 C   0  0  0  0  0  0  0  0  0  0  0  0
   -8.9598    3.6421    5.0365 C   0  0  0  0  0  0  0  0  0  0  0  0
  -10.3248    4.2268    5.2701 C   0  0  0  0  0  0  0  0  0  0  0  0
  1  3  4  0
  1 14  4  0
  1  2  1  0
  3  4  4  0
  4  5  4  0
  5  6  4  0
  5 22  1  0
  6  7  1  0
  6 14  4  0
  7  8  1  0
  8  9  4  0
  8 12  4  0
  9 10  4  0
 10 11  4  0
 11 12  4  0
 12 13  1  0
 13 14  1  0
 13 15  1  6
 15 16  4  0
 15 20  4  0
 16 17  4  0
 17 18  4  0
 17 21  1  0
 18 19  4  0
 19 20  4  0
 23 24  4  0
 24 25  1  0
 24 26  4  0
 26 27  1  0
 27 28  1  0
 28 29  2  0
 28 30  1  0
 30 31  1  0
 31 32  1  0
 32 33  1  0
 33 34  1  0
 34 35  1  0
 35 36  1  0
 36 37  1  0
 37 38  1  0
 38 39  4  0
 39 40  4  0
 40 41  4  0
 41 42  4  0
 42 43  4  0
 37 44  1  0
 44 45  1  0
 26 46  4  0
 46 47  1  0
 45 34  1  0
 43 38  4  0
  2 23  4  0
  2 46  4  0
M  CHG  1  34   1
M  END
$$$$

     RDKit          3D

 47 53  0  0  0  0  0  0  0  0999 V2000
   -7.6410    4.9930    6.8080 C   0  0  0  0  0  0  0  0  0  1  0  0
   -7.7310    4.0530    5.7140 C   0  0  0  0  0  0  0  0  0  2  0  0
   -6.4520    5.6300    6.8680 N   0  0  0  0  0  0  0  0  0  0  0  0
   -6.2260    6.5240    7.8670 N   0  0  0  0  0  0  0  0  0  0  0  0
   -7.1930    6.7500    8.7820 C   0  0  0  0  0  0  0  0  0  0  0  0
   -8.4240    6.1170    8.7580 C   0  0  0  0  0  0  0  0  0  0  0  0
   -9.3950    6.3570    9.7450 N   0  0  0  0  0  0  0  0  0  0  0  0
  -10.5620    5.6840    9.7600 C   0  0  0  0  0  0  0  0  0  0  0  0
  -11.5770    5.6820   10.5960 N   0  0  0  0  0  0  0  0  0  0  0  0
  -12.4690    4.7490   10.1080 N   0  0  0  0  0  0  0  0  0  0  0  0
  -12.0160    4.1880    8.9920 N   0  0  0  0  0  0  0  0  0  0  0  0
  -10.8400    4.7900    8.7610 N   0  0  0  0  0  0  0  0  0  0  0  0
   -9.9950    4.4790    7.6090 C   0  0  0  0  0  0  0  0  0  0  0  0
   -8.6630    5.2070    7.7200 C   0  0  0  0  0  0  0  0  0  0  0  0
  -10.7490    4.8610    6.3730 C   0  0  0  0  0  0  0  0  0  0  0  0
  -11.0350    6.2020    6.1170 C   0  0  0  0  0  0  0  0  0  0  0  0
  -11.7370    6.5580    4.9650 C   0  0  0  0  0  0  0  0  0  0  0  0
  -12.1550    5.5730    4.0710 C   0  0  0  0  0  0  0  0  0  0  0  0
  -11.8700    4.2310    4.3270 C   0  0  0  0  0  0  0  0  0  0  0  0
  -11.1660    3.8760    5.4790 C   0  0  0  0  0  0  0  0  0  0  0  0
  -12.0160    7.8660    4.7150 O   0  0  0  0  0  0  0  0  0  0  0  0
   -6.8990    7.6510    9.7710 O   0  0  0  0  0  0  0  0  0  0  0  0
   -6.7528    3.3075    5.1002 C   0  0  0  0  0  0  0  0  0  0  0  0
   -7.3283    2.4701    4.1685 C   0  0  0  0  0  0  0  0  0  0  0  0
   -6.5717    1.4528    3.3672 C   0  0  0  0  0  0  0  0  0  0  0  0
   -8.6742    2.6196    4.1634 N   0  0  0  0  0  0  0  0  0  0  0  0
   -9.6216    1.8138    3.3799 C   0  0  0  0  0  0  0  0  0  0  0  0
   -9.6537    0.4049    3.8887 C   0  0  0  0  0  0  0  0  0  0  0  0
   -9.3460   -0.5415    3.1127 O   0  0  0  0  0  0  0  0  0  0  0  0
  -10.0272    0.1373    5.2478 N   0  0  0  0  0  0  0  0  0  0  0  0
  -10.0006   -1.2102    5.8141 C   0  0  0  0  0  0  0  0  0  0  0  0
  -11.2157   -2.0188    5.3386 C   0  0  0  0  0  0  0  0  0  0  0  0
  -11.0925   -3.5330    5.6255 C   0  0  0  0  0  0  0  0  0  0  0  0
  -10.8604   -3.8957    7.0523 N   0  0  0  0  0  0  0  0  0  0  0  0
  -11.9626   -3.4626    7.9494 C   0  0  0  0  0  0  0  0  0  0  0  0
  -13.2211   -4.3276    7.7814 C   0  0  0  0  0  0  0  0  0  0  0  0
  -12.8846   -5.7544    7.8467 N   0  0  0  0  0  0  0  0  0  0  0  0
  -13.9330   -6.7432    7.8358 C   0  0  0  0  0  0  0  0  0  0  0  0
  -13.9432   -7.7827    8.7829 C   0  0  0  0  0  0  0  0  0  0  0  0
  -14.9532   -8.7487    8.7635 C   0  0  0  0  0  0  0  0  0  0  0  0
  -15.9626   -8.6867    7.8003 C   0  0  0  0  0  0  0  0  0  0  0  0
  -15.9602   -7.6590    6.8521 C   0  0  0  0  0  0  0  0  0  0  0  0
  -14.9541   -6.6886    6.8703 C   0  0  0  0  0  0  0  0  0  0  0  0
  -11.4935   -6.1455    8.0931 C   0  0  0  0  0  0  0  0  0  0  0  0
  -10.5481   -5.3577    7.1702 C   0  0  0  0  0  0  0  0  0  0  0  0
   -8.9617    3.5871    5.0728 C   0  0  0  0  0  0  0  0  0  0  0  0
  -10.3395    4.1287    5.3490 C   0  0  0  0  0  0  0  0  0  0  0  0
  1  3  4  0
  1 14  4  0
  1  2  1  0
  3  4  4  0
  4  5  4  0
  5  6  4  0
  5 22  1  0
  6  7  1  0
  6 14  4  0
  7  8  1  0
  8  9  4  0
  8 12  4  0
  9 10  4  0
 10 11  4  0
 11 12  4  0
 12 13  1  0
 13 14  1  0
 13 15  1  6
 15 16  4  0
 15 20  4  0
 16 17  4  0
 17 18  4  0
 17 21  1  0
 18 19  4  0
 19 20  4  0
 23 24  4  0
 24 25  1  0
 24 26  4  0
 26 27  1  0
 27 28  1  0
 28 29  2  0
 28 30  1  0
 30 31  1  0
 31 32  1  0
 32 33  1  0
 33 34  1  0
 34 35  1  0
 35 36  1  0
 36 37  1  0
 37 38  1  0
 38 39  4  0
 39 40  4  0
 40 41  4  0
 41 42  4  0
 42 43  4  0
 37 44  1  0
 44 45  1  0
 26 46  4  0
 46 47  1  0
 45 34  1  0
 43 38  4  0
  2 23  4  0
  2 46  4  0
M  CHG  1  34   1
M  END
$$$$

     RDKit          3D

 44 50  0  0  0  0  0  0  0  0999 V2000
   -7.6410    4.9930    6.8080 C   0  0  0  0  0  0  0  0  0  1  0  0
   -7.7310    4.0530    5.7140 C   0  0  0  0  0  0  0  0  0  2  0  0
   -6.4520    5.6300    6.8680 N   0  0  0  0  0  0  0  0  0  0  0  0
   -6.2260    6.5240    7.8670 N   0  0  0  0  0  0  0  0  0  0  0  0
   -7.1930    6.7500    8.7820 C   0  0  0  0  0  0  0  0  0  0  0  0
   -8.4240    6.1170    8.7580 C   0  0  0  0  0  0  0  0  0  0  0  0
   -9.3950    6.3570    9.7450 N   0  0  0  0  0  0  0  0  0  0  0  0
  -10.5620    5.6840    9.7600 C   0  0  0  0  0  0  0  0  0  0  0  0
  -11.5770    5.6820   10.5960 N   0  0  0  0  0  0  0  0  0  0  0  0
  -12.4690    4.7490   10.1080 N   0  0  0  0  0  0  0  0  0  0  0  0
  -12.0160    4.1880    8.9920 N   0  0  0  0  0  0  0  0  0  0  0  0
  -10.8400    4.7900    8.7610 N   0  0  0  0  0  0  0  0  0  0  0  0
   -9.9950    4.4790    7.6090 C   0  0  0  0  0  0  0  0  0  0  0  0
   -8.6630    5.2070    7.7200 C   0  0  0  0  0  0  0  0  0  0  0  0
  -10.7490    4.8610    6.3730 C   0  0  0  0  0  0  0  0  0  0  0  0
  -11.0350    6.2020    6.1170 C   0  0  0  0  0  0  0  0  0  0  0  0
  -11.7370    6.5580    4.9650 C   0  0  0  0  0  0  0  0  0  0  0  0
  -12.1550    5.5730    4.0710 C   0  0  0  0  0  0  0  0  0  0  0  0
  -11.8700    4.2310    4.3270 C   0  0  0  0  0  0  0  0  0  0  0  0
  -11.1660    3.8760    5.4790 C   0  0  0  0  0  0  0  0  0  0  0  0
  -12.0160    7.8660    4.7150 O   0  0  0  0  0  0  0  0  0  0  0  0
   -6.8990    7.6510    9.7710 O   0  0  0  0  0  0  0  0  0  0  0  0
   -6.7898    3.1994    5.2623 N   0  0  0  0  0  0  0  0  0  0  0  0
   -7.2799    2.4540    4.2797 N   0  0  0  0  0  0  0  0  0  0  0  0
   -8.5653    2.8190    4.1141 C   0  0  0  0  0  0  0  0  0  0  0  0
   -9.6457    2.1292    2.8578 S   0  0  0  0  0  0  0  0  0  0  0  0
   -9.2933    3.4229    1.6109 C   0  0  0  0  0  0  0  0  0  0  0  0
   -7.9723    3.1397    0.8923 C   0  0  0  0  0  0  0  0  0  0  0  0
  -10.4280    3.4853    0.6262 C   0  0  0  0  0  0  0  0  0  0  0  0
  -11.0654    4.5651    0.4896 O   0  0  0  0  0  0  0  0  0  0  0  0
  -10.7862    2.3332   -0.1539 N   0  0  0  0  0  0  0  0  0  0  0  0
  -11.8736    2.3603   -1.1364 C   0  0  0  0  0  0  0  0  0  0  0  0
  -13.2223    2.2331   -0.4219 C   0  0  0  0  0  0  0  0  0  0  0  0
  -11.6817    1.2612   -2.1481 C   0  0  0  0  0  0  0  0  0  0  0  0
  -10.5790    1.1425   -2.9917 C   0  0  0  0  0  0  0  0  0  0  0  0
  -10.8347    0.0101   -3.7286 C   0  0  0  0  0  0  0  0  0  0  0  0
  -10.0946   -0.6139   -4.7302 C   0  0  0  0  0  0  0  0  0  0  0  0
  -10.6299   -1.7803   -5.3082 C   0  0  0  0  0  0  0  0  0  0  0  0
  -11.8766   -2.2867   -4.8750 C   0  0  0  0  0  0  0  0  0  0  0  0
  -12.5978   -1.6319   -3.8590 C   0  0  0  0  0  0  0  0  0  0  0  0
  -12.0419   -0.4803   -3.3068 C   0  0  0  0  0  0  0  0  0  0  0  0
  -12.5396    0.2764   -2.3602 O   0  0  0  0  0  0  0  0  0  0  0  0
   -8.9118    3.7828    4.9835 N   0  0  0  0  0  0  0  0  0  0  0  0
  -10.1094    4.5171    4.9965 N   0  0  0  0  0  0  0  0  0  0  0  0
  1  3  4  0
  1 14  4  0
  1  2  1  0
  3  4  4  0
  4  5  4  0
  5  6  4  0
  5 22  1  0
  6  7  1  0
  6 14  4  0
  7  8  1  0
  8  9  4  0
  8 12  4  0
  9 10  4  0
 10 11  4  0
 11 12  4  0
 12 13  1  0
 13 14  1  0
 13 15  1  6
 15 16  4  0
 15 20  4  0
 16 17  4  0
 17 18  4  0
 17 21  1  0
 18 19  4  0
 19 20  4  0
 23 24  4  0
 24 25  4  0
 25 26  1  0
 26 27  1  0
 27 28  1  0
 27 29  1  0
 29 30  2  0
 29 31  1  0
 31 32  1  0
 32 33  1  0
 32 34  1  0
 34 35  4  0
 35 36  4  0
 36 37  4  0
 37 38  4  0
 38 39  4  0
 39 40  4  0
 40 41  4  0
 41 42  4  0
 25 43  4  0
 43 44  1  0
 42 34  4  0
 41 36  4  0
  2 23  4  0
  2 43  4  0
M  END
$$$$

     RDKit          3D

 44 50  0  0  0  0  0  0  0  0999 V2000
   -7.6410    4.9930    6.8080 C   0  0  0  0  0  0  0  0  0  1  0  0
   -7.7310    4.0530    5.7140 C   0  0  0  0  0  0  0  0  0  2  0  0
   -6.4520    5.6300    6.8680 N   0  0  0  0  0  0  0  0  0  0  0  0
   -6.2260    6.5240    7.8670 N   0  0  0  0  0  0  0  0  0  0  0  0
   -7.1930    6.7500    8.7820 C   0  0  0  0  0  0  0  0  0  0  0  0
   -8.4240    6.1170    8.7580 C   0  0  0  0  0  0  0  0  0  0  0  0
   -9.3950    6.3570    9.7450 N   0  0  0  0  0  0  0  0  0  0  0  0
  -10.5620    5.6840    9.7600 C   0  0  0  0  0  0  0  0  0  0  0  0
  -11.5770    5.6820   10.5960 N   0  0  0  0  0  0  0  0  0  0  0  0
  -12.4690    4.7490   10.1080 N   0  0  0  0  0  0  0  0  0  0  0  0
  -12.0160    4.1880    8.9920 N   0  0  0  0  0  0  0  0  0  0  0  0
  -10.8400    4.7900    8.7610 N   0  0  0  0  0  0  0  0  0  0  0  0
   -9.9950    4.4790    7.6090 C   0  0  0  0  0  0  0  0  0  0  0  0
   -8.6630    5.2070    7.7200 C   0  0  0  0  0  0  0  0  0  0  0  0
  -10.7490    4.8610    6.3730 C   0  0  0  0  0  0  0  0  0  0  0  0
  -11.0350    6.2020    6.1170 C   0  0  0  0  0  0  0  0  0  0  0  0
  -11.7370    6.5580    4.9650 C   0  0  0  0  0  0  0  0  0  0  0  0
  -12.1550    5.5730    4.0710 C   0  0  0  0  0  0  0  0  0  0  0  0
  -11.8700    4.2310    4.3270 C   0  0  0  0  0  0  0  0  0  0  0  0
  -11.1660    3.8760    5.4790 C   0  0  0  0  0  0  0  0  0  0  0  0
  -12.0160    7.8660    4.7150 O   0  0  0  0  0  0  0  0  0  0  0  0
   -6.8990    7.6510    9.7710 O   0  0  0  0  0  0  0  0  0  0  0  0
   -6.7964    3.1841    5.2811 N   0  0  0  0  0  0  0  0  0  0  0  0
   -7.2854    2.4320    4.3045 N   0  0  0  0  0  0  0  0  0  0  0  0
   -8.5654    2.8059    4.1247 C   0  0  0  0  0  0  0  0  0  0  0  0
   -9.6421    2.0908    2.8797 S   0  0  0  0  0  0  0  0  0  0  0  0
  -10.4813    0.9271    4.0186 C   0  0  0  0  0  0  0  0  0  0  0  0
   -9.5133   -0.1352    4.5487 C   0  0  0  0  0  0  0  0  0  0  0  0
  -11.6139    0.2643    3.2874 C   0  0  0  0  0  0  0  0  0  0  0  0
  -11.3619   -0.4597    2.2854 O   0  0  0  0  0  0  0  0  0  0  0  0
  -12.9705    0.4486    3.7249 N   0  0  0  0  0  0  0  0  0  0  0  0
  -14.0755   -0.3656    3.2192 C   0  0  0  0  0  0  0  0  0  0  0  0
  -14.4357   -1.4507    4.2355 C   0  0  0  0  0  0  0  0  0  0  0  0
  -15.2586    0.5072    2.9153 C   0  0  0  0  0  0  0  0  0  0  0  0
  -15.9937    1.2522    3.8413 C   0  0  0  0  0  0  0  0  0  0  0  0
  -16.9609    1.8745    3.0872 C   0  0  0  0  0  0  0  0  0  0  0  0
  -17.9926    2.7392    3.4540 C   0  0  0  0  0  0  0  0  0  0  0  0
  -18.8380    3.2184    2.4360 C   0  0  0  0  0  0  0  0  0  0  0  0
  -18.6312    2.8231    1.0934 C   0  0  0  0  0  0  0  0  0  0  0  0
  -17.5814    1.9486    0.7579 C   0  0  0  0  0  0  0  0  0  0  0  0
  -16.7637    1.4910    1.7871 C   0  0  0  0  0  0  0  0  0  0  0  0
  -15.7418    0.6737    1.6968 O   0  0  0  0  0  0  0  0  0  0  0  0
   -8.9077    3.7894    4.9732 N   0  0  0  0  0  0  0  0  0  0  0  0
  -10.1012    4.5321    4.9707 N   0  0  0  0  0  0  0  0  0  0  0  0
  1  3  4  0
  1 14  4  0
  1  2  1  0
  3  4  4  0
  4  5  4  0
  5  6  4  0
  5 22  1  0
  6  7  1  0
  6 14  4  0
  7  8  1  0
  8  9  4  0
  8 12  4  0
  9 10  4  0
 10 11  4  0
 11 12  4  0
 12 13  1  0
 13 14  1  0
 13 15  1  6
 15 16  4  0
 15 20  4  0
 16 17  4  0
 17 18  4  0
 17 21  1  0
 18 19  4  0
 19 20  4  0
 23 24  4  0
 24 25  4  0
 25 26  1  0
 26 27  1  0
 27 28  1  0
 27 29  1  0
 29 30  2  0
 29 31  1  0
 31 32  1  0
 32 33  1  0
 32 34  1  0
 34 35  4  0
 35 36  4  0
 36 37  4  0
 37 38  4  0
 38 39  4  0
 39 40  4  0
 40 41  4  0
 41 42  4  0
 25 43  4  0
 43 44  1  0
 42 34  4  0
 41 36  4  0
  2 23  4  0
  2 43  4  0
M  END
$$$$

     RDKit          3D

 43 48  0  0  0  0  0  0  0  0999 V2000
   -7.6410    4.9930    6.8080 C   0  0  0  0  0  0  0  0  0  1  0  0
   -7.7310    4.0530    5.7140 C   0  0  0  0  0  0  0  0  0  2  0  0
   -6.4520    5.6300    6.8680 N   0  0  0  0  0  0  0  0  0  0  0  0
   -6.2260    6.5240    7.8670 N   0  0  0  0  0  0  0  0  0  0  0  0
   -7.1930    6.7500    8.7820 C   0  0  0  0  0  0  0  0  0  0  0  0
   -8.4240    6.1170    8.7580 C   0  0  0  0  0  0  0  0  0  0  0  0
   -9.3950    6.3570    9.7450 N   0  0  0  0  0  0  0  0  0  0  0  0
  -10.5620    5.6840    9.7600 C   0  0  0  0  0  0  0  0  0  0  0  0
  -11.5770    5.6820   10.5960 N   0  0  0  0  0  0  0  0  0  0  0  0
  -12.4690    4.7490   10.1080 N   0  0  0  0  0  0  0  0  0  0  0  0
  -12.0160    4.1880    8.9920 N   0  0  0  0  0  0  0  0  0  0  0  0
  -10.8400    4.7900    8.7610 N   0  0  0  0  0  0  0  0  0  0  0  0
   -9.9950    4.4790    7.6090 C   0  0  0  0  0  0  0  0  0  0  0  0
   -8.6630    5.2070    7.7200 C   0  0  0  0  0  0  0  0  0  0  0  0
  -10.7490    4.8610    6.3730 C   0  0  0  0  0  0  0  0  0  0  0  0
  -11.0350    6.2020    6.1170 C   0  0  0  0  0  0  0  0  0  0  0  0
  -11.7370    6.5580    4.9650 C   0  0  0  0  0  0  0  0  0  0  0  0
  -12.1550    5.5730    4.0710 C   0  0  0  0  0  0  0  0  0  0  0  0
  -11.8700    4.2310    4.3270 C   0  0  0  0  0  0  0  0  0  0  0  0
  -11.1660    3.8760    5.4790 C   0  0  0  0  0  0  0  0  0  0  0  0
  -12.0160    7.8660    4.7150 O   0  0  0  0  0  0  0  0  0  0  0  0
   -6.8990    7.6510    9.7710 O   0  0  0  0  0  0  0  0  0  0  0  0
   -6.8363    3.1016    5.3728 N   0  0  0  0  0  0  0  0  0  0  0  0
   -7.2648    2.4450    4.3058 N   0  0  0  0  0  0  0  0  0  0  0  0
   -8.4607    2.9668    3.9793 C   0  0  0  0  0  0  0  0  0  0  0  0
   -9.4086    2.4300    2.5508 S   0  0  0  0  0  0  0  0  0  0  0  0
  -10.3889    1.2021    3.4797 C   0  0  0  0  0  0  0  0  0  0  0  0
   -9.5565   -0.0009    3.8199 C   0  0  0  0  0  0  0  0  0  0  0  0
   -9.2316   -0.1952    5.0221 O   0  0  0  0  0  0  0  0  0  0  0  0
   -9.1288   -0.9385    2.8205 N   0  0  0  0  0  0  0  0  0  0  0  0
   -9.6369   -0.9285    1.4476 C   0  0  0  0  0  0  0  0  0  0  0  0
   -9.0168   -2.0408    0.6376 C   0  0  0  0  0  0  0  0  0  0  0  0
   -9.8052   -3.1359    0.2405 C   0  0  0  0  0  0  0  0  0  0  0  0
   -9.2466   -4.1768   -0.5050 C   0  0  0  0  0  0  0  0  0  0  0  0
   -7.8987   -4.1361   -0.8634 C   0  0  0  0  0  0  0  0  0  0  0  0
   -7.1054   -3.0540   -0.4777 C   0  0  0  0  0  0  0  0  0  0  0  0
   -7.6557   -2.0037    0.2665 C   0  0  0  0  0  0  0  0  0  0  0  0
   -6.6113   -0.6623    0.7236 Cl  0  0  0  0  0  0  0  0  0  0  0  0
   -8.8247    3.9510    4.8270 N   0  0  0  0  0  0  0  0  0  0  0  0
   -9.9680    4.8608    4.7023 C   0  0  0  0  0  0  0  0  0  0  0  0
   -9.5079    6.2223    4.2885 C   0  0  0  0  0  0  0  0  0  0  0  0
   -9.7482    7.2210    5.0164 O   0  0  0  0  0  0  0  0  0  0  0  0
   -8.8194    6.3894    3.0955 O   0  0  0  0  0  0  0  0  0  0  0  0
  1  3  4  0
  1 14  4  0
  1  2  1  0
  3  4  4  0
  4  5  4  0
  5  6  4  0
  5 22  1  0
  6  7  1  0
  6 14  4  0
  7  8  1  0
  8  9  4  0
  8 12  4  0
  9 10  4  0
 10 11  4  0
 11 12  4  0
 12 13  1  0
 13 14  1  0
 13 15  1  6
 15 16  4  0
 15 20  4  0
 16 17  4  0
 17 18  4  0
 17 21  1  0
 18 19  4  0
 19 20  4  0
 23 24  4  0
 24 25  4  0
 25 26  1  0
 26 27  1  0
 27 28  1  0
 28 29  2  0
 28 30  1  0
 30 31  1  0
 31 32  1  0
 32 33  4  0
 33 34  4  0
 34 35  4  0
 35 36  4  0
 36 37  4  0
 37 38  1  0
 25 39  4  0
 39 40  1  0
 40 41  1  0
 41 42  2  0
 41 43  1  0
 37 32  4  0
  2 23  4  0
  2 39  4  0
M  CHG  1  43  -1
M  END
$$$$

     RDKit          3D

 46 52  0  0  0  0  0  0  0  0999 V2000
   -7.6410    4.9930    6.8080 C   0  0  0  0  0  0  0  0  0  1  0  0
   -7.7310    4.0530    5.7140 C   0  0  0  0  0  0  0  0  0  2  0  0
   -6.4520    5.6300    6.8680 N   0  0  0  0  0  0  0  0  0  0  0  0
   -6.2260    6.5240    7.8670 N   0  0  0  0  0  0  0  0  0  0  0  0
   -7.1930    6.7500    8.7820 C   0  0  0  0  0  0  0  0  0  0  0  0
   -8.4240    6.1170    8.7580 C   0  0  0  0  0  0  0  0  0  0  0  0
   -9.3950    6.3570    9.7450 N   0  0  0  0  0  0  0  0  0  0  0  0
  -10.5620    5.6840    9.7600 C   0  0  0  0  0  0  0  0  0  0  0  0
  -11.5770    5.6820   10.5960 N   0  0  0  0  0  0  0  0  0  0  0  0
  -12.4690    4.7490   10.1080 N   0  0  0  0  0  0  0  0  0  0  0  0
  -12.0160    4.1880    8.9920 N   0  0  0  0  0  0  0  0  0  0  0  0
  -10.8400    4.7900    8.7610 N   0  0  0  0  0  0  0  0  0  0  0  0
   -9.9950    4.4790    7.6090 C   0  0  0  0  0  0  0  0  0  0  0  0
   -8.6630    5.2070    7.7200 C   0  0  0  0  0  0  0  0  0  0  0  0
  -10.7490    4.8610    6.3730 C   0  0  0  0  0  0  0  0  0  0  0  0
  -11.0350    6.2020    6.1170 C   0  0  0  0  0  0  0  0  0  0  0  0
  -11.7370    6.5580    4.9650 C   0  0  0  0  0  0  0  0  0  0  0  0
  -12.1550    5.5730    4.0710 C   0  0  0  0  0  0  0  0  0  0  0  0
  -11.8700    4.2310    4.3270 C   0  0  0  0  0  0  0  0  0  0  0  0
  -11.1660    3.8760    5.4790 C   0  0  0  0  0  0  0  0  0  0  0  0
  -12.0160    7.8660    4.7150 O   0  0  0  0  0  0  0  0  0  0  0  0
   -6.8990    7.6510    9.7710 O   0  0  0  0  0  0  0  0  0  0  0  0
   -6.8445    3.0837    5.3969 N   0  0  0  0  0  0  0  0  0  0  0  0
   -7.2977    2.3633    4.3837 N   0  0  0  0  0  0  0  0  0  0  0  0
   -6.5195    1.3228    3.7226 C   0  0  0  0  0  0  0  0  0  0  0  0
   -5.7001    1.9193    2.6116 C   0  0  0  0  0  0  0  0  0  0  0  0
   -4.3334    2.1826    2.7980 C   0  0  0  0  0  0  0  0  0  0  0  0
   -3.5813    2.7551    1.7673 C   0  0  0  0  0  0  0  0  0  0  0  0
   -4.1887    3.0691    0.5484 C   0  0  0  0  0  0  0  0  0  0  0  0
   -5.5483    2.8126    0.3570 C   0  0  0  0  0  0  0  0  0  0  0  0
   -6.3033    2.2381    1.3843 C   0  0  0  0  0  0  0  0  0  0  0  0
   -8.5022    2.8210    3.9914 C   0  0  0  0  0  0  0  0  0  0  0  0
   -8.8456    3.8836    4.8042 C   0  0  0  0  0  0  0  0  0  0  0  0
   -9.9988    4.7865    4.6242 C   0  0  0  0  0  0  0  0  0  0  0  0
   -9.9574    5.9523    5.1025 O   0  0  0  0  0  0  0  0  0  0  0  0
  -11.1561    4.3553    3.8922 N   0  0  0  0  0  0  0  0  0  0  0  0
  -12.2231    5.2785    3.5138 C   0  0  0  0  0  0  0  0  0  0  0  0
  -11.7829    6.1383    2.3310 C   0  0  0  0  0  0  0  0  0  0  0  0
  -12.8083    7.0725    1.9931 O   0  0  0  0  0  0  0  0  0  0  0  0
  -12.8711    8.4014    2.4404 C   0  0  0  0  0  0  0  0  0  0  0  0
  -12.0936    8.8790    3.5127 C   0  0  0  0  0  0  0  0  0  0  0  0
  -12.1937   10.2137    3.9124 C   0  0  0  0  0  0  0  0  0  0  0  0
  -13.0685   11.0818    3.2550 C   0  0  0  0  0  0  0  0  0  0  0  0
  -13.8454   10.6212    2.1830 C   0  0  0  0  0  0  0  0  0  0  0  0
  -14.8141   11.5433    1.5023 C   0  0  0  0  0  0  0  0  0  0  0  0
  -13.7564    9.2751    1.7960 C   0  0  0  0  0  0  0  0  0  0  0  0
  1  3  4  0
  1 14  4  0
  1  2  1  0
  3  4  4  0
  4  5  4  0
  5  6  4  0
  5 22  1  0
  6  7  1  0
  6 14  4  0
  7  8  1  0
  8  9  4  0
  8 12  4  0
  9 10  4  0
 10 11  4  0
 11 12  4  0
 12 13  1  0
 13 14  1  0
 13 15  1  6
 15 16  4  0
 15 20  4  0
 16 17  4  0
 17 18  4  0
 17 21  1  0
 18 19  4  0
 19 20  4  0
 23 24  4  0
 24 25  1  0
 25 26  1  0
 26 27  4  0
 27 28  4  0
 28 29  4  0
 29 30  4  0
 30 31  4  0
 24 32  4  0
 32 33  4  0
 33 34  1  0
 34 35  2  0
 34 36  1  0
 36 37  1  0
 37 38  1  0
 38 39  1  0
 39 40  1  0
 40 41  4  0
 41 42  4  0
 42 43  4  0
 43 44  4  0
 44 45  1  0
 44 46  4  0
 46 40  4  0
 31 26  4  0
  2 23  4  0
  2 33  4  0
M  END
$$$$

     RDKit          3D

 46 52  0  0  0  0  0  0  0  0999 V2000
   -7.6410    4.9930    6.8080 C   0  0  0  0  0  0  0  0  0  1  0  0
   -7.7310    4.0530    5.7140 C   0  0  0  0  0  0  0  0  0  2  0  0
   -6.4520    5.6300    6.8680 N   0  0  0  0  0  0  0  0  0  0  0  0
   -6.2260    6.5240    7.8670 N   0  0  0  0  0  0  0  0  0  0  0  0
   -7.1930    6.7500    8.7820 C   0  0  0  0  0  0  0  0  0  0  0  0
   -8.4240    6.1170    8.7580 C   0  0  0  0  0  0  0  0  0  0  0  0
   -9.3950    6.3570    9.7450 N   0  0  0  0  0  0  0  0  0  0  0  0
  -10.5620    5.6840    9.7600 C   0  0  0  0  0  0  0  0  0  0  0  0
  -11.5770    5.6820   10.5960 N   0  0  0  0  0  0  0  0  0  0  0  0
  -12.4690    4.7490   10.1080 N   0  0  0  0  0  0  0  0  0  0  0  0
  -12.0160    4.1880    8.9920 N   0  0  0  0  0  0  0  0  0  0  0  0
  -10.8400    4.7900    8.7610 N   0  0  0  0  0  0  0  0  0  0  0  0
   -9.9950    4.4790    7.6090 C   0  0  0  0  0  0  0  0  0  0  0  0
   -8.6630    5.2070    7.7200 C   0  0  0  0  0  0  0  0  0  0  0  0
  -10.7490    4.8610    6.3730 C   0  0  0  0  0  0  0  0  0  0  0  0
  -11.0350    6.2020    6.1170 C   0  0  0  0  0  0  0  0  0  0  0  0
  -11.7370    6.5580    4.9650 C   0  0  0  0  0  0  0  0  0  0  0  0
  -12.1550    5.5730    4.0710 C   0  0  0  0  0  0  0  0  0  0  0  0
  -11.8700    4.2310    4.3270 C   0  0  0  0  0  0  0  0  0  0  0  0
  -11.1660    3.8760    5.4790 C   0  0  0  0  0  0  0  0  0  0  0  0
  -12.0160    7.8660    4.7150 O   0  0  0  0  0  0  0  0  0  0  0  0
   -6.8990    7.6510    9.7710 O   0  0  0  0  0  0  0  0  0  0  0  0
   -6.8739    3.0415    5.4442 N   0  0  0  0  0  0  0  0  0  0  0  0
   -7.3104    2.3378    4.4114 N   0  0  0  0  0  0  0  0  0  0  0  0
   -6.5744    1.2291    3.8077 C   0  0  0  0  0  0  0  0  0  0  0  0
   -6.1121    0.2603    4.8641 C   0  0  0  0  0  0  0  0  0  0  0  0
   -7.0506   -0.3906    5.6835 C   0  0  0  0  0  0  0  0  0  0  0  0
   -6.6247   -1.2914    6.6643 C   0  0  0  0  0  0  0  0  0  0  0  0
   -5.2622   -1.5534    6.8298 C   0  0  0  0  0  0  0  0  0  0  0  0
   -4.3235   -0.9140    6.0147 C   0  0  0  0  0  0  0  0  0  0  0  0
   -4.7445   -0.0081    5.0364 C   0  0  0  0  0  0  0  0  0  0  0  0
   -8.4689    2.8519    3.9572 C   0  0  0  0  0  0  0  0  0  0  0  0
   -8.8092    3.9305    4.7531 C   0  0  0  0  0  0  0  0  0  0  0  0
   -9.9424    4.8590    4.5446 C   0  0  0  0  0  0  0  0  0  0  0  0
   -9.9771    5.9509    5.1734 O   0  0  0  0  0  0  0  0  0  0  0  0
  -10.9917    4.5367    3.6168 N   0  0  0  0  0  0  0  0  0  0  0  0
  -12.1157    5.4344    3.3536 C   0  0  0  0  0  0  0  0  0  0  0  0
  -11.6654    6.6655    2.5589 C   0  0  0  0  0  0  0  0  0  0  0  0
  -10.9308    6.2908    1.3929 O   0  0  0  0  0  0  0  0  0  0  0  0
  -11.4762    5.7268    0.2268 C   0  0  0  0  0  0  0  0  0  0  0  0
  -10.5920    5.2719   -0.7585 C   0  0  0  0  0  0  0  0  0  0  0  0
  -11.0743    4.7061   -1.9401 C   0  0  0  0  0  0  0  0  0  0  0  0
  -12.4507    4.5937   -2.1521 C   0  0  0  0  0  0  0  0  0  0  0  0
  -13.3538    5.0637   -1.1872 C   0  0  0  0  0  0  0  0  0  0  0  0
  -14.8310    4.9180   -1.4050 C   0  0  0  0  0  0  0  0  0  0  0  0
  -12.8643    5.6164    0.0079 C   0  0  0  0  0  0  0  0  0  0  0  0
  1  3  4  0
  1 14  4  0
  1  2  1  0
  3  4  4  0
  4  5  4  0
  5  6  4  0
  5 22  1  0
  6  7  1  0
  6 14  4  0
  7  8  1  0
  8  9  4  0
  8 12  4  0
  9 10  4  0
 10 11  4  0
 11 12  4  0
 12 13  1  0
 13 14  1  0
 13 15  1  6
 15 16  4  0
 15 20  4  0
 16 17  4  0
 17 18  4  0
 17 21  1  0
 18 19  4  0
 19 20  4  0
 23 24  4  0
 24 25  1  0
 25 26  1  0
 26 27  4  0
 27 28  4  0
 28 29  4  0
 29 30  4  0
 30 31  4  0
 24 32  4  0
 32 33  4  0
 33 34  1  0
 34 35  2  0
 34 36  1  0
 36 37  1  0
 37 38  1  0
 38 39  1  0
 39 40  1  0
 40 41  4  0
 41 42  4  0
 42 43  4  0
 43 44  4  0
 44 45  1  0
 44 46  4  0
 46 40  4  0
 31 26  4  0
  2 23  4  0
  2 33  4  0
M  END
$$$$

     RDKit          3D

 44 50  0  0  0  0  0  0  0  0999 V2000
   -7.6410    4.9930    6.8080 C   0  0  0  0  0  0  0  0  0  1  0  0
   -7.7310    4.0530    5.7140 C   0  0  0  0  0  0  0  0  0  2  0  0
   -6.4520    5.6300    6.8680 N   0  0  0  0  0  0  0  0  0  0  0  0
   -6.2260    6.5240    7.8670 N   0  0  0  0  0  0  0  0  0  0  0  0
   -7.1930    6.7500    8.7820 C   0  0  0  0  0  0  0  0  0  0  0  0
   -8.4240    6.1170    8.7580 C   0  0  0  0  0  0  0  0  0  0  0  0
   -9.3950    6.3570    9.7450 N   0  0  0  0  0  0  0  0  0  0  0  0
  -10.5620    5.6840    9.7600 C   0  0  0  0  0  0  0  0  0  0  0  0
  -11.5770    5.6820   10.5960 N   0  0  0  0  0  0  0  0  0  0  0  0
  -12.4690    4.7490   10.1080 N   0  0  0  0  0  0  0  0  0  0  0  0
  -12.0160    4.1880    8.9920 N   0  0  0  0  0  0  0  0  0  0  0  0
  -10.8400    4.7900    8.7610 N   0  0  0  0  0  0  0  0  0  0  0  0
   -9.9950    4.4790    7.6090 C   0  0  0  0  0  0  0  0  0  0  0  0
   -8.6630    5.2070    7.7200 C   0  0  0  0  0  0  0  0  0  0  0  0
  -10.7490    4.8610    6.3730 C   0  0  0  0  0  0  0  0  0  0  0  0
  -11.0350    6.2020    6.1170 C   0  0  0  0  0  0  0  0  0  0  0  0
  -11.7370    6.5580    4.9650 C   0  0  0  0  0  0  0  0  0  0  0  0
  -12.1550    5.5730    4.0710 C   0  0  0  0  0  0  0  0  0  0  0  0
  -11.8700    4.2310    4.3270 C   0  0  0  0  0  0  0  0  0  0  0  0
  -11.1660    3.8760    5.4790 C   0  0  0  0  0  0  0  0  0  0  0  0
  -12.0160    7.8660    4.7150 O   0  0  0  0  0  0  0  0  0  0  0  0
   -6.8990    7.6510    9.7710 O   0  0  0  0  0  0  0  0  0  0  0  0
   -6.9884    2.8624    5.5764 C   0  0  0  0  0  0  0  0  0  0  0  0
   -7.5022    1.9481    4.2475 S   0  0  0  0  0  0  0  0  0  0  0  0
   -8.7228    3.0101    3.8118 C   0  0  0  0  0  0  0  0  0  0  0  0
   -9.5664    2.8885    2.7607 N   0  0  0  0  0  0  0  0  0  0  0  0
  -10.4822    3.8722    2.5294 C   0  0  0  0  0  0  0  0  0  0  0  0
  -11.4560    3.7307    1.3906 C   0  0  0  0  0  0  0  0  0  0  0  0
  -12.8190    3.4111    1.8787 N   0  0  0  0  0  0  0  0  0  0  0  0
  -13.8567    3.6972    0.8532 C   0  0  0  0  0  0  0  0  0  0  0  0
  -13.7169    2.9140   -0.4840 C   0  0  0  0  0  0  0  0  0  0  0  0
  -13.9411    1.5383   -0.3039 O   0  0  0  0  0  0  0  0  0  0  0  0
  -14.6872    3.4722   -1.5398 C   0  0  0  0  0  0  0  0  0  0  0  0
  -14.5090    2.7914   -2.7710 O   0  0  0  0  0  0  0  0  0  0  0  0
  -15.5838    1.9110   -3.0510 C   0  0  0  0  0  0  0  0  0  0  0  0
  -16.6907    2.6592   -3.8004 C   0  0  0  0  0  0  0  0  0  0  0  0
  -15.0524    0.7592   -3.9036 C   0  0  0  0  0  0  0  0  0  0  0  0
  -12.8865    2.0068    2.3511 C   0  0  0  0  0  0  0  0  0  0  0  0
  -14.0484    1.6945    3.2889 C   0  0  0  0  0  0  0  0  0  0  0  0
  -12.6393    1.8206    3.8464 C   0  0  0  0  0  0  0  0  0  0  0  0
  -10.5360    4.9690    3.3497 N   0  0  0  0  0  0  0  0  0  0  0  0
   -9.6887    5.1052    4.4112 C   0  0  0  0  0  0  0  0  0  0  0  0
   -9.7407    6.1420    5.1233 O   0  0  0  0  0  0  0  0  0  0  0  0
   -8.7592    4.0882    4.6712 C   0  0  0  0  0  0  0  0  0  0  0  0
  1  3  4  0
  1 14  4  0
  1  2  1  0
  3  4  4  0
  4  5  4  0
  5  6  4  0
  5 22  1  0
  6  7  1  0
  6 14  4  0
  7  8  1  0
  8  9  4  0
  8 12  4  0
  9 10  4  0
 10 11  4  0
 11 12  4  0
 12 13  1  0
 13 14  1  0
 13 15  1  6
 15 16  4  0
 15 20  4  0
 16 17  4  0
 17 18  4  0
 17 21  1  0
 18 19  4  0
 19 20  4  0
 23 24  4  0
 24 25  4  0
 25 26  4  0
 26 27  4  0
 27 28  1  0
 28 29  1  0
 29 30  1  0
 30 31  1  0
 31 32  1  0
 31 33  1  0
 33 34  1  0
 34 35  1  0
 35 36  1  0
 35 37  1  0
 29 38  1  0
 38 39  1  0
 39 40  1  0
 27 41  4  0
 41 42  4  0
 42 43  2  0
 42 44  4  0
 44 25  4  0
 40 38  1  0
  2 23  4  0
  2 44  4  0
M  CHG  1  29   1
M  END
$$$$

     RDKit          3D

 44 50  0  0  0  0  0  0  0  0999 V2000
   -7.6410    4.9930    6.8080 C   0  0  0  0  0  0  0  0  0  1  0  0
   -7.7310    4.0530    5.7140 C   0  0  0  0  0  0  0  0  0  2  0  0
   -6.4520    5.6300    6.8680 N   0  0  0  0  0  0  0  0  0  0  0  0
   -6.2260    6.5240    7.8670 N   0  0  0  0  0  0  0  0  0  0  0  0
   -7.1930    6.7500    8.7820 C   0  0  0  0  0  0  0  0  0  0  0  0
   -8.4240    6.1170    8.7580 C   0  0  0  0  0  0  0  0  0  0  0  0
   -9.3950    6.3570    9.7450 N   0  0  0  0  0  0  0  0  0  0  0  0
  -10.5620    5.6840    9.7600 C   0  0  0  0  0  0  0  0  0  0  0  0
  -11.5770    5.6820   10.5960 N   0  0  0  0  0  0  0  0  0  0  0  0
  -12.4690    4.7490   10.1080 N   0  0  0  0  0  0  0  0  0  0  0  0
  -12.0160    4.1880    8.9920 N   0  0  0  0  0  0  0  0  0  0  0  0
  -10.8400    4.7900    8.7610 N   0  0  0  0  0  0  0  0  0  0  0  0
   -9.9950    4.4790    7.6090 C   0  0  0  0  0  0  0  0  0  0  0  0
   -8.6630    5.2070    7.7200 C   0  0  0  0  0  0  0  0  0  0  0  0
  -10.7490    4.8610    6.3730 C   0  0  0  0  0  0  0  0  0  0  0  0
  -11.0350    6.2020    6.1170 C   0  0  0  0  0  0  0  0  0  0  0  0
  -11.7370    6.5580    4.9650 C   0  0  0  0  0  0  0  0  0  0  0  0
  -12.1550    5.5730    4.0710 C   0  0  0  0  0  0  0  0  0  0  0  0
  -11.8700    4.2310    4.3270 C   0  0  0  0  0  0  0  0  0  0  0  0
  -11.1660    3.8760    5.4790 C   0  0  0  0  0  0  0  0  0  0  0  0
  -12.0160    7.8660    4.7150 O   0  0  0  0  0  0  0  0  0  0  0  0
   -6.8990    7.6510    9.7710 O   0  0  0  0  0  0  0  0  0  0  0  0
   -7.0011    2.8530    5.5969 C   0  0  0  0  0  0  0  0  0  0  0  0
   -7.4810    1.9559    4.2454 S   0  0  0  0  0  0  0  0  0  0  0  0
   -8.6707    3.0382    3.7770 C   0  0  0  0  0  0  0  0  0  0  0  0
   -9.4622    2.9465    2.6842 N   0  0  0  0  0  0  0  0  0  0  0  0
  -10.3504    3.9496    2.4223 C   0  0  0  0  0  0  0  0  0  0  0  0
  -11.2041    3.8796    1.1829 C   0  0  0  0  0  0  0  0  0  0  0  0
  -10.6300    4.6936    0.0813 N   0  0  0  0  0  0  0  0  0  0  0  0
  -11.6487    5.0752   -0.9428 C   0  0  0  0  0  0  0  0  0  0  0  0
  -11.9378    4.0520   -2.0848 C   0  0  0  0  0  0  0  0  0  0  0  0
  -12.7823    4.6600   -3.0309 O   0  0  0  0  0  0  0  0  0  0  0  0
  -12.6124    2.7539   -1.6209 C   0  0  0  0  0  0  0  0  0  0  0  0
  -13.7390    3.0545   -0.8136 O   0  0  0  0  0  0  0  0  0  0  0  0
  -14.5425    1.9190   -0.5112 C   0  0  0  0  0  0  0  0  0  0  0  0
  -13.7827    0.8027    0.2233 C   0  0  0  0  0  0  0  0  0  0  0  0
  -15.3163    1.3953   -1.7296 C   0  0  0  0  0  0  0  0  0  0  0  0
   -9.4547    4.0115   -0.5154 C   0  0  0  0  0  0  0  0  0  0  0  0
   -8.1047    4.3977    0.0787 C   0  0  0  0  0  0  0  0  0  0  0  0
   -8.5113    4.9276   -1.2877 C   0  0  0  0  0  0  0  0  0  0  0  0
  -10.4187    5.0411    3.2487 N   0  0  0  0  0  0  0  0  0  0  0  0
   -9.6211    5.1480    4.3530 C   0  0  0  0  0  0  0  0  0  0  0  0
   -9.6899    6.1753    5.0791 O   0  0  0  0  0  0  0  0  0  0  0  0
   -8.7226    4.1115    4.6424 C   0  0  0  0  0  0  0  0  0  0  0  0
  1  3  4  0
  1 14  4  0
  1  2  1  0
  3  4  4  0
  4  5  4  0
  5  6  4  0
  5 22  1  0
  6  7  1  0
  6 14  4  0
  7  8  1  0
  8  9  4  0
  8 12  4  0
  9 10  4  0
 10 11  4  0
 11 12  4  0
 12 13  1  0
 13 14  1  0
 13 15  1  6
 15 16  4  0
 15 20  4  0
 16 17  4  0
 17 18  4  0
 17 21  1  0
 18 19  4  0
 19 20  4  0
 23 24  4  0
 24 25  4  0
 25 26  4  0
 26 27  4  0
 27 28  1  0
 28 29  1  0
 29 30  1  0
 30 31  1  0
 31 32  1  0
 31 33  1  0
 33 34  1  0
 34 35  1  0
 35 36  1  0
 35 37  1  0
 29 38  1  0
 38 39  1  0
 39 40  1  0
 27 41  4  0
 41 42  4  0
 42 43  2  0
 42 44  4  0
 44 25  4  0
 40 38  1  0
  2 23  4  0
  2 44  4  0
M  CHG  1  29   1
M  END
$$$$

     RDKit          3D

 44 50  0  0  0  0  0  0  0  0999 V2000
   -7.6410    4.9930    6.8080 C   0  0  0  0  0  0  0  0  0  1  0  0
   -7.7310    4.0530    5.7140 C   0  0  0  0  0  0  0  0  0  2  0  0
   -6.4520    5.6300    6.8680 N   0  0  0  0  0  0  0  0  0  0  0  0
   -6.2260    6.5240    7.8670 N   0  0  0  0  0  0  0  0  0  0  0  0
   -7.1930    6.7500    8.7820 C   0  0  0  0  0  0  0  0  0  0  0  0
   -8.4240    6.1170    8.7580 C   0  0  0  0  0  0  0  0  0  0  0  0
   -9.3950    6.3570    9.7450 N   0  0  0  0  0  0  0  0  0  0  0  0
  -10.5620    5.6840    9.7600 C   0  0  0  0  0  0  0  0  0  0  0  0
  -11.5770    5.6820   10.5960 N   0  0  0  0  0  0  0  0  0  0  0  0
  -12.4690    4.7490   10.1080 N   0  0  0  0  0  0  0  0  0  0  0  0
  -12.0160    4.1880    8.9920 N   0  0  0  0  0  0  0  0  0  0  0  0
  -10.8400    4.7900    8.7610 N   0  0  0  0  0  0  0  0  0  0  0  0
   -9.9950    4.4790    7.6090 C   0  0  0  0  0  0  0  0  0  0  0  0
   -8.6630    5.2070    7.7200 C   0  0  0  0  0  0  0  0  0  0  0  0
  -10.7490    4.8610    6.3730 C   0  0  0  0  0  0  0  0  0  0  0  0
  -11.0350    6.2020    6.1170 C   0  0  0  0  0  0  0  0  0  0  0  0
  -11.7370    6.5580    4.9650 C   0  0  0  0  0  0  0  0  0  0  0  0
  -12.1550    5.5730    4.0710 C   0  0  0  0  0  0  0  0  0  0  0  0
  -11.8700    4.2310    4.3270 C   0  0  0  0  0  0  0  0  0  0  0  0
  -11.1660    3.8760    5.4790 C   0  0  0  0  0  0  0  0  0  0  0  0
  -12.0160    7.8660    4.7150 O   0  0  0  0  0  0  0  0  0  0  0  0
   -6.8990    7.6510    9.7710 O   0  0  0  0  0  0  0  0  0  0  0  0
   -6.9180    2.9201    5.5269 C   0  0  0  0  0  0  0  0  0  0  0  0
   -7.4895    1.9209    4.2877 S   0  0  0  0  0  0  0  0  0  0  0  0
   -8.8200    2.8766    3.9414 C   0  0  0  0  0  0  0  0  0  0  0  0
   -9.7642    2.6388    3.0034 N   0  0  0  0  0  0  0  0  0  0  0  0
  -10.7706    3.5414    2.8234 C   0  0  0  0  0  0  0  0  0  0  0  0
  -11.9031    3.2661    1.8520 C   0  0  0  0  0  0  0  0  0  0  0  0
  -11.5589    2.4433    0.6590 N   0  0  0  0  0  0  0  0  0  0  0  0
  -10.4323    3.0557   -0.1015 C   0  0  0  0  0  0  0  0  0  0  0  0
  -10.2843    2.5620   -1.5631 C   0  0  0  0  0  0  0  0  0  0  0  0
   -9.9866    1.1905   -1.5884 O   0  0  0  0  0  0  0  0  0  0  0  0
  -11.5156    2.8700   -2.4346 C   0  0  0  0  0  0  0  0  0  0  0  0
  -11.1856    2.7328   -3.8073 O   0  0  0  0  0  0  0  0  0  0  0  0
  -11.7102    1.5380   -4.3629 C   0  0  0  0  0  0  0  0  0  0  0  0
  -13.1105    1.7983   -4.9285 C   0  0  0  0  0  0  0  0  0  0  0  0
  -10.7730    1.0697   -5.4758 C   0  0  0  0  0  0  0  0  0  0  0  0
  -11.2636    1.0342    1.0340 C   0  0  0  0  0  0  0  0  0  0  0  0
  -11.9656   -0.0212    0.1784 C   0  0  0  0  0  0  0  0  0  0  0  0
  -12.4389    0.2365    1.5957 C   0  0  0  0  0  0  0  0  0  0  0  0
  -10.8238    4.6638    3.6110 N   0  0  0  0  0  0  0  0  0  0  0  0
   -9.8839    4.9118    4.5700 C   0  0  0  0  0  0  0  0  0  0  0  0
   -9.9481    5.9701    5.2521 O   0  0  0  0  0  0  0  0  0  0  0  0
   -8.8539    3.9826    4.7647 C   0  0  0  0  0  0  0  0  0  0  0  0
  1  3  4  0
  1 14  4  0
  1  2  1  0
  3  4  4  0
  4  5  4  0
  5  6  4  0
  5 22  1  0
  6  7  1  0
  6 14  4  0
  7  8  1  0
  8  9  4  0
  8 12  4  0
  9 10  4  0
 10 11  4  0
 11 12  4  0
 12 13  1  0
 13 14  1  0
 13 15  1  6
 15 16  4  0
 15 20  4  0
 16 17  4  0
 17 18  4  0
 17 21  1  0
 18 19  4  0
 19 20  4  0
 23 24  4  0
 24 25  4  0
 25 26  4  0
 26 27  4  0
 27 28  1  0
 28 29  1  0
 29 30  1  0
 30 31  1  0
 31 32  1  0
 31 33  1  0
 33 34  1  0
 34 35  1  0
 35 36  1  0
 35 37  1  0
 29 38  1  0
 38 39  1  0
 39 40  1  0
 27 41  4  0
 41 42  4  0
 42 43  2  0
 42 44  4  0
 44 25  4  0
 40 38  1  0
  2 23  4  0
  2 44  4  0
M  CHG  1  29   1
M  END
$$$$

     RDKit          3D

 30 34  0  0  0  0  0  0  0  0999 V2000
   -7.6410    4.9930    6.8080 C   0  0  0  0  0  0  0  0  0  1  0  0
   -7.7310    4.0530    5.7140 C   0  0  0  0  0  0  0  0  0  2  0  0
   -6.4520    5.6300    6.8680 N   0  0  0  0  0  0  0  0  0  0  0  0
   -6.2260    6.5240    7.8670 N   0  0  0  0  0  0  0  0  0  0  0  0
   -7.1930    6.7500    8.7820 C   0  0  0  0  0  0  0  0  0  0  0  0
   -8.4240    6.1170    8.7580 C   0  0  0  0  0  0  0  0  0  0  0  0
   -9.3950    6.3570    9.7450 N   0  0  0  0  0  0  0  0  0  0  0  0
  -10.5620    5.6840    9.7600 C   0  0  0  0  0  0  0  0  0  0  0  0
  -11.5770    5.6820   10.5960 N   0  0  0  0  0  0  0  0  0  0  0  0
  -12.4690    4.7490   10.1080 N   0  0  0  0  0  0  0  0  0  0  0  0
  -12.0160    4.1880    8.9920 N   0  0  0  0  0  0  0  0  0  0  0  0
  -10.8400    4.7900    8.7610 N   0  0  0  0  0  0  0  0  0  0  0  0
   -9.9950    4.4790    7.6090 C   0  0  0  0  0  0  0  0  0  0  0  0
   -8.6630    5.2070    7.7200 C   0  0  0  0  0  0  0  0  0  0  0  0
  -10.7490    4.8610    6.3730 C   0  0  0  0  0  0  0  0  0  0  0  0
  -11.0350    6.2020    6.1170 C   0  0  0  0  0  0  0  0  0  0  0  0
  -11.7370    6.5580    4.9650 C   0  0  0  0  0  0  0  0  0  0  0  0
  -12.1550    5.5730    4.0710 C   0  0  0  0  0  0  0  0  0  0  0  0
  -11.8700    4.2310    4.3270 C   0  0  0  0  0  0  0  0  0  0  0  0
  -11.1660    3.8760    5.4790 C   0  0  0  0  0  0  0  0  0  0  0  0
  -12.0160    7.8660    4.7150 O   0  0  0  0  0  0  0  0  0  0  0  0
   -6.8990    7.6510    9.7710 O   0  0  0  0  0  0  0  0  0  0  0  0
   -6.9713    2.9237    5.3968 C   0  0  0  0  0  0  0  0  0  0  0  0
   -5.8033    2.5285    6.1161 N   0  0  0  0  0  0  0  0  0  0  0  0
   -7.4680    2.2299    4.3561 N   0  0  0  0  0  0  0  0  0  0  0  0
   -8.5775    2.8394    3.9692 N   0  0  0  0  0  0  0  0  0  0  0  0
   -8.8049    3.9169    4.7483 C   0  0  0  0  0  0  0  0  0  0  0  0
   -9.9247    4.8522    4.5386 C   0  0  0  0  0  0  0  0  0  0  0  0
  -10.8410    4.5617    3.7257 O   0  0  0  0  0  0  0  0  0  0  0  0
   -9.9704    6.0704    5.2042 O   0  0  0  0  0  0  0  0  0  0  0  0
  1  3  4  0
  1 14  4  0
  1  2  1  0
  3  4  4  0
  4  5  4  0
  5  6  4  0
  5 22  1  0
  6  7  1  0
  6 14  4  0
  7  8  1  0
  8  9  4  0
  8 12  4  0
  9 10  4  0
 10 11  4  0
 11 12  4  0
 12 13  1  0
 13 14  1  0
 13 15  1  6
 15 16  4  0
 15 20  4  0
 16 17  4  0
 17 18  4  0
 17 21  1  0
 18 19  4  0
 19 20  4  0
 23 24  1  0
 23 25  4  0
 25 26  4  0
 26 27  4  0
 27 28  1  0
 28 29  2  0
 28 30  1  0
  2 23  4  0
  2 27  4  0
M  CHG  1  30  -1
M  END
$$$$

     RDKit          3D

 30 34  0  0  0  0  0  0  0  0999 V2000
   -7.6410    4.9930    6.8080 C   0  0  0  0  0  0  0  0  0  1  0  0
   -7.7310    4.0530    5.7140 C   0  0  0  0  0  0  0  0  0  2  0  0
   -6.4520    5.6300    6.8680 N   0  0  0  0  0  0  0  0  0  0  0  0
   -6.2260    6.5240    7.8670 N   0  0  0  0  0  0  0  0  0  0  0  0
   -7.1930    6.7500    8.7820 C   0  0  0  0  0  0  0  0  0  0  0  0
   -8.4240    6.1170    8.7580 C   0  0  0  0  0  0  0  0  0  0  0  0
   -9.3950    6.3570    9.7450 N   0  0  0  0  0  0  0  0  0  0  0  0
  -10.5620    5.6840    9.7600 C   0  0  0  0  0  0  0  0  0  0  0  0
  -11.5770    5.6820   10.5960 N   0  0  0  0  0  0  0  0  0  0  0  0
  -12.4690    4.7490   10.1080 N   0  0  0  0  0  0  0  0  0  0  0  0
  -12.0160    4.1880    8.9920 N   0  0  0  0  0  0  0  0  0  0  0  0
  -10.8400    4.7900    8.7610 N   0  0  0  0  0  0  0  0  0  0  0  0
   -9.9950    4.4790    7.6090 C   0  0  0  0  0  0  0  0  0  0  0  0
   -8.6630    5.2070    7.7200 C   0  0  0  0  0  0  0  0  0  0  0  0
  -10.7490    4.8610    6.3730 C   0  0  0  0  0  0  0  0  0  0  0  0
  -11.0350    6.2020    6.1170 C   0  0  0  0  0  0  0  0  0  0  0  0
  -11.7370    6.5580    4.9650 C   0  0  0  0  0  0  0  0  0  0  0  0
  -12.1550    5.5730    4.0710 C   0  0  0  0  0  0  0  0  0  0  0  0
  -11.8700    4.2310    4.3270 C   0  0  0  0  0  0  0  0  0  0  0  0
  -11.1660    3.8760    5.4790 C   0  0  0  0  0  0  0  0  0  0  0  0
  -12.0160    7.8660    4.7150 O   0  0  0  0  0  0  0  0  0  0  0  0
   -6.8990    7.6510    9.7710 O   0  0  0  0  0  0  0  0  0  0  0  0
   -8.7847    3.9811    4.7274 C   0  0  0  0  0  0  0  0  0  0  0  0
   -9.8462    4.9254    4.5894 N   0  0  0  0  0  0  0  0  0  0  0  0
   -8.5883    2.9601    3.8729 N   0  0  0  0  0  0  0  0  0  0  0  0
   -7.4951    2.3238    4.2631 N   0  0  0  0  0  0  0  0  0  0  0  0
   -6.9814    2.9221    5.3571 C   0  0  0  0  0  0  0  0  0  0  0  0
   -5.8004    2.4160    6.0791 C   0  0  0  0  0  0  0  0  0  0  0  0
   -5.4772    2.8876    7.2003 O   0  0  0  0  0  0  0  0  0  0  0  0
   -5.0458    1.3859    5.5325 O   0  0  0  0  0  0  0  0  0  0  0  0
  1  3  4  0
  1 14  4  0
  1  2  1  0
  3  4  4  0
  4  5  4  0
  5  6  4  0
  5 22  1  0
  6  7  1  0
  6 14  4  0
  7  8  1  0
  8  9  4  0
  8 12  4  0
  9 10  4  0
 10 11  4  0
 11 12  4  0
 12 13  1  0
 13 14  1  0
 13 15  1  6
 15 16  4  0
 15 20  4  0
 16 17  4  0
 17 18  4  0
 17 21  1  0
 18 19  4  0
 19 20  4  0
 23 24  1  0
 23 25  4  0
 25 26  4  0
 26 27  4  0
 27 28  1  0
 28 29  2  0
 28 30  1  0
  2 23  4  0
  2 27  4  0
M  CHG  1  30  -1
M  END
$$$$

     RDKit          3D

 42 47  0  0  0  0  0  0  0  0999 V2000
   -7.6410    4.9930    6.8080 C   0  0  0  0  0  0  0  0  0  1  0  0
   -7.7310    4.0530    5.7140 C   0  0  0  0  0  0  0  0  0  2  0  0
   -6.4520    5.6300    6.8680 N   0  0  0  0  0  0  0  0  0  0  0  0
   -6.2260    6.5240    7.8670 N   0  0  0  0  0  0  0  0  0  0  0  0
   -7.1930    6.7500    8.7820 C   0  0  0  0  0  0  0  0  0  0  0  0
   -8.4240    6.1170    8.7580 C   0  0  0  0  0  0  0  0  0  0  0  0
   -9.3950    6.3570    9.7450 N   0  0  0  0  0  0  0  0  0  0  0  0
  -10.5620    5.6840    9.7600 C   0  0  0  0  0  0  0  0  0  0  0  0
  -11.5770    5.6820   10.5960 N   0  0  0  0  0  0  0  0  0  0  0  0
  -12.4690    4.7490   10.1080 N   0  0  0  0  0  0  0  0  0  0  0  0
  -12.0160    4.1880    8.9920 N   0  0  0  0  0  0  0  0  0  0  0  0
  -10.8400    4.7900    8.7610 N   0  0  0  0  0  0  0  0  0  0  0  0
   -9.9950    4.4790    7.6090 C   0  0  0  0  0  0  0  0  0  0  0  0
   -8.6630    5.2070    7.7200 C   0  0  0  0  0  0  0  0  0  0  0  0
  -10.7490    4.8610    6.3730 C   0  0  0  0  0  0  0  0  0  0  0  0
  -11.0350    6.2020    6.1170 C   0  0  0  0  0  0  0  0  0  0  0  0
  -11.7370    6.5580    4.9650 C   0  0  0  0  0  0  0  0  0  0  0  0
  -12.1550    5.5730    4.0710 C   0  0  0  0  0  0  0  0  0  0  0  0
  -11.8700    4.2310    4.3270 C   0  0  0  0  0  0  0  0  0  0  0  0
  -11.1660    3.8760    5.4790 C   0  0  0  0  0  0  0  0  0  0  0  0
  -12.0160    7.8660    4.7150 O   0  0  0  0  0  0  0  0  0  0  0  0
   -6.8990    7.6510    9.7710 O   0  0  0  0  0  0  0  0  0  0  0  0
   -6.8812    2.9375    5.5814 C   0  0  0  0  0  0  0  0  0  0  0  0
   -7.0297    1.9810    4.5780 C   0  0  0  0  0  0  0  0  0  0  0  0
   -8.0883    2.0908    3.6695 C   0  0  0  0  0  0  0  0  0  0  0  0
   -8.2616    1.0920    2.6487 N   0  0  0  0  0  0  0  0  0  0  0  0
   -9.3510    1.0666    1.7105 C   0  0  0  0  0  0  0  0  0  0  0  0
  -10.2012    1.9971    1.6957 O   0  0  0  0  0  0  0  0  0  0  0  0
   -9.4675   -0.0338    0.7949 N   0  0  0  0  0  0  0  0  0  0  0  0
  -10.5602   -0.2032   -0.1260 C   0  0  0  0  0  0  0  0  0  0  0  0
  -11.3721    0.7415   -0.3259 O   0  0  0  0  0  0  0  0  0  0  0  0
  -10.7247   -1.4716   -0.8777 C   0  0  0  0  0  0  0  0  0  0  0  0
  -11.2055   -1.4531   -2.2042 C   0  0  0  0  0  0  0  0  0  0  0  0
  -11.5115   -0.2818   -2.8182 F   0  0  0  0  0  0  0  0  0  0  0  0
  -11.3519   -2.6461   -2.9186 C   0  0  0  0  0  0  0  0  0  0  0  0
  -11.0287   -3.8661   -2.3221 C   0  0  0  0  0  0  0  0  0  0  0  0
  -10.5686   -3.8996   -1.0047 C   0  0  0  0  0  0  0  0  0  0  0  0
  -10.4210   -2.7135   -0.2795 C   0  0  0  0  0  0  0  0  0  0  0  0
  -10.0286   -2.7902    1.0177 F   0  0  0  0  0  0  0  0  0  0  0  0
   -8.9478    3.1413    3.7730 N   0  0  0  0  0  0  0  0  0  0  0  0
   -8.8285    4.0990    4.7335 C   0  0  0  0  0  0  0  0  0  0  0  0
   -9.8240    5.2223    4.7441 C   0  0  0  0  0  0  0  0  0  0  0  0
  1  3  4  0
  1 14  4  0
  1  2  1  0
  3  4  4  0
  4  5  4  0
  5  6  4  0
  5 22  1  0
  6  7  1  0
  6 14  4  0
  7  8  1  0
  8  9  4  0
  8 12  4  0
  9 10  4  0
 10 11  4  0
 11 12  4  0
 12 13  1  0
 13 14  1  0
 13 15  1  6
 15 16  4  0
 15 20  4  0
 16 17  4  0
 17 18  4  0
 17 21  1  0
 18 19  4  0
 19 20  4  0
 23 24  4  0
 24 25  4  0
 25 26  1  0
 26 27  1  0
 27 28  2  0
 27 29  1  0
 29 30  1  0
 30 31  2  0
 30 32  1  0
 32 33  4  0
 33 34  1  0
 33 35  4  0
 35 36  4  0
 36 37  4  0
 37 38  4  0
 38 39  1  0
 25 40  4  0
 40 41  4  0
 41 42  1  0
 38 32  4  0
  2 23  4  0
  2 41  4  0
M  END
$$$$

     RDKit          3D

 42 47  0  0  0  0  0  0  0  0999 V2000
   -7.6410    4.9930    6.8080 C   0  0  0  0  0  0  0  0  0  1  0  0
   -7.7310    4.0530    5.7140 C   0  0  0  0  0  0  0  0  0  2  0  0
   -6.4520    5.6300    6.8680 N   0  0  0  0  0  0  0  0  0  0  0  0
   -6.2260    6.5240    7.8670 N   0  0  0  0  0  0  0  0  0  0  0  0
   -7.1930    6.7500    8.7820 C   0  0  0  0  0  0  0  0  0  0  0  0
   -8.4240    6.1170    8.7580 C   0  0  0  0  0  0  0  0  0  0  0  0
   -9.3950    6.3570    9.7450 N   0  0  0  0  0  0  0  0  0  0  0  0
  -10.5620    5.6840    9.7600 C   0  0  0  0  0  0  0  0  0  0  0  0
  -11.5770    5.6820   10.5960 N   0  0  0  0  0  0  0  0  0  0  0  0
  -12.4690    4.7490   10.1080 N   0  0  0  0  0  0  0  0  0  0  0  0
  -12.0160    4.1880    8.9920 N   0  0  0  0  0  0  0  0  0  0  0  0
  -10.8400    4.7900    8.7610 N   0  0  0  0  0  0  0  0  0  0  0  0
   -9.9950    4.4790    7.6090 C   0  0  0  0  0  0  0  0  0  0  0  0
   -8.6630    5.2070    7.7200 C   0  0  0  0  0  0  0  0  0  0  0  0
  -10.7490    4.8610    6.3730 C   0  0  0  0  0  0  0  0  0  0  0  0
  -11.0350    6.2020    6.1170 C   0  0  0  0  0  0  0  0  0  0  0  0
  -11.7370    6.5580    4.9650 C   0  0  0  0  0  0  0  0  0  0  0  0
  -12.1550    5.5730    4.0710 C   0  0  0  0  0  0  0  0  0  0  0  0
  -11.8700    4.2310    4.3270 C   0  0  0  0  0  0  0  0  0  0  0  0
  -11.1660    3.8760    5.4790 C   0  0  0  0  0  0  0  0  0  0  0  0
  -12.0160    7.8660    4.7150 O   0  0  0  0  0  0  0  0  0  0  0  0
   -6.8990    7.6510    9.7710 O   0  0  0  0  0  0  0  0  0  0  0  0
   -6.8833    2.9364    5.5817 C   0  0  0  0  0  0  0  0  0  0  0  0
   -7.0256    1.9858    4.5719 C   0  0  0  0  0  0  0  0  0  0  0  0
   -8.0884    2.0967    3.6641 C   0  0  0  0  0  0  0  0  0  0  0  0
   -8.2685    1.1551    2.5949 N   0  0  0  0  0  0  0  0  0  0  0  0
   -7.9473   -0.2420    2.6803 C   0  0  0  0  0  0  0  0  0  0  0  0
   -7.6985   -0.7694    3.7984 O   0  0  0  0  0  0  0  0  0  0  0  0
   -7.9378   -1.0377    1.4854 N   0  0  0  0  0  0  0  0  0  0  0  0
   -7.7510   -2.4632    1.4753 C   0  0  0  0  0  0  0  0  0  0  0  0
   -7.8544   -3.1220    2.5462 O   0  0  0  0  0  0  0  0  0  0  0  0
   -7.4747   -3.1783    0.2068 C   0  0  0  0  0  0  0  0  0  0  0  0
   -8.0136   -4.4622   -0.0171 C   0  0  0  0  0  0  0  0  0  0  0  0
   -8.8141   -5.0513    0.9073 F   0  0  0  0  0  0  0  0  0  0  0  0
   -7.7513   -5.1394   -1.2125 C   0  0  0  0  0  0  0  0  0  0  0  0
   -6.9475   -4.5526   -2.1907 C   0  0  0  0  0  0  0  0  0  0  0  0
   -6.3984   -3.2872   -1.9759 C   0  0  0  0  0  0  0  0  0  0  0  0
   -6.6545   -2.6002   -0.7846 C   0  0  0  0  0  0  0  0  0  0  0  0
   -6.0627   -1.3949   -0.5865 F   0  0  0  0  0  0  0  0  0  0  0  0
   -8.9324    3.1595    3.7557 N   0  0  0  0  0  0  0  0  0  0  0  0
   -8.8160    4.1123    4.7217 C   0  0  0  0  0  0  0  0  0  0  0  0
   -9.7979    5.2481    4.7224 C   0  0  0  0  0  0  0  0  0  0  0  0
  1  3  4  0
  1 14  4  0
  1  2  1  0
  3  4  4  0
  4  5  4  0
  5  6  4  0
  5 22  1  0
  6  7  1  0
  6 14  4  0
  7  8  1  0
  8  9  4  0
  8 12  4  0
  9 10  4  0
 10 11  4  0
 11 12  4  0
 12 13  1  0
 13 14  1  0
 13 15  1  6
 15 16  4  0
 15 20  4  0
 16 17  4  0
 17 18  4  0
 17 21  1  0
 18 19  4  0
 19 20  4  0
 23 24  4  0
 24 25  4  0
 25 26  1  0
 26 27  1  0
 27 28  2  0
 27 29  1  0
 29 30  1  0
 30 31  2  0
 30 32  1  0
 32 33  4  0
 33 34  1  0
 33 35  4  0
 35 36  4  0
 36 37  4  0
 37 38  4  0
 38 39  1  0
 25 40  4  0
 40 41  4  0
 41 42  1  0
 38 32  4  0
  2 23  4  0
  2 41  4  0
M  END
$$$$

     RDKit          3D

 44 50  0  0  0  0  0  0  0  0999 V2000
   -7.6410    4.9930    6.8080 C   0  0  0  0  0  0  0  0  0  1  0  0
   -7.7310    4.0530    5.7140 C   0  0  0  0  0  0  0  0  0  2  0  0
   -6.4520    5.6300    6.8680 N   0  0  0  0  0  0  0  0  0  0  0  0
   -6.2260    6.5240    7.8670 N   0  0  0  0  0  0  0  0  0  0  0  0
   -7.1930    6.7500    8.7820 C   0  0  0  0  0  0  0  0  0  0  0  0
   -8.4240    6.1170    8.7580 C   0  0  0  0  0  0  0  0  0  0  0  0
   -9.3950    6.3570    9.7450 N   0  0  0  0  0  0  0  0  0  0  0  0
  -10.5620    5.6840    9.7600 C   0  0  0  0  0  0  0  0  0  0  0  0
  -11.5770    5.6820   10.5960 N   0  0  0  0  0  0  0  0  0  0  0  0
  -12.4690    4.7490   10.1080 N   0  0  0  0  0  0  0  0  0  0  0  0
  -12.0160    4.1880    8.9920 N   0  0  0  0  0  0  0  0  0  0  0  0
  -10.8400    4.7900    8.7610 N   0  0  0  0  0  0  0  0  0  0  0  0
   -9.9950    4.4790    7.6090 C   0  0  0  0  0  0  0  0  0  0  0  0
   -8.6630    5.2070    7.7200 C   0  0  0  0  0  0  0  0  0  0  0  0
  -10.7490    4.8610    6.3730 C   0  0  0  0  0  0  0  0  0  0  0  0
  -11.0350    6.2020    6.1170 C   0  0  0  0  0  0  0  0  0  0  0  0
  -11.7370    6.5580    4.9650 C   0  0  0  0  0  0  0  0  0  0  0  0
  -12.1550    5.5730    4.0710 C   0  0  0  0  0  0  0  0  0  0  0  0
  -11.8700    4.2310    4.3270 C   0  0  0  0  0  0  0  0  0  0  0  0
  -11.1660    3.8760    5.4790 C   0  0  0  0  0  0  0  0  0  0  0  0
  -12.0160    7.8660    4.7150 O   0  0  0  0  0  0  0  0  0  0  0  0
   -6.8990    7.6510    9.7710 O   0  0  0  0  0  0  0  0  0  0  0  0
   -7.0266    2.8174    5.7332 C   0  0  0  0  0  0  0  0  0  0  0  0
   -7.2431    1.7904    4.7845 C   0  0  0  0  0  0  0  0  0  1  0  0
   -6.4446    0.5361    4.7871 C   0  0  0  0  0  0  0  0  0  2  0  0
   -5.1284    0.4988    5.2954 C   0  0  0  0  0  0  0  0  0  0  0  0
   -4.3759   -0.6796    5.2324 C   0  0  0  0  0  0  0  0  0  0  0  0
   -4.9221   -1.8311    4.6629 C   0  0  0  0  0  0  0  0  0  0  0  0
   -6.2194   -1.8067    4.1523 C   0  0  0  0  0  0  0  0  0  0  0  0
   -6.9780   -0.6330    4.2153 C   0  0  0  0  0  0  0  0  0  0  0  0
   -8.2193    1.9492    3.8465 N   0  0  0  0  0  0  0  0  0  0  0  0
   -8.9425    3.0915    3.7920 C   0  0  0  0  0  0  0  0  0  0  0  0
  -10.1475    3.4352    2.6869 S   0  0  0  0  0  0  0  0  0  0  0  0
  -10.4328    4.9984    3.2605 C   0  0  0  0  0  0  0  0  0  0  0  0
  -11.3318    5.9500    2.5792 C   0  0  0  0  0  0  0  0  0  0  0  0
  -11.1141    7.1871    2.6606 O   0  0  0  0  0  0  0  0  0  0  0  0
  -12.4245    5.4569    1.7864 N   0  0  0  0  0  0  0  0  0  0  0  0
  -12.9615    6.1369    0.5900 C   0  0  0  0  0  0  0  0  0  0  0  0
  -13.9780    5.2034   -0.0984 C   0  0  0  0  0  0  0  0  0  0  0  0
  -11.8148    6.4356   -0.4024 C   0  0  0  0  0  0  0  0  0  0  0  0
  -13.6855    7.4423    0.9839 C   0  0  0  0  0  0  0  0  0  0  0  0
   -9.5672    5.2598    4.3389 C   0  0  0  0  0  0  0  0  0  0  0  0
   -9.5164    6.5287    5.0024 N   0  0  0  0  0  0  0  0  0  0  0  0
   -8.7348    4.1565    4.6536 C   0  0  0  0  0  0  0  0  0  0  0  0
  1  3  4  0
  1 14  4  0
  1  2  1  0
  3  4  4  0
  4  5  4  0
  5  6  4  0
  5 22  1  0
  6  7  1  0
  6 14  4  0
  7  8  1  0
  8  9  4  0
  8 12  4  0
  9 10  4  0
 10 11  4  0
 11 12  4  0
 12 13  1  0
 13 14  1  0
 13 15  1  6
 15 16  4  0
 15 20  4  0
 16 17  4  0
 17 18  4  0
 17 21  1  0
 18 19  4  0
 19 20  4  0
 23 24  4  0
 24 25  1  0
 25 26  4  0
 26 27  4  0
 27 28  4  0
 28 29  4  0
 29 30  4  0
 24 31  4  0
 31 32  4  0
 32 33  4  0
 33 34  4  0
 34 35  1  0
 35 36  2  0
 35 37  1  0
 37 38  1  0
 38 39  1  0
 38 40  1  0
 38 41  1  0
 34 42  4  0
 42 43  1  0
 42 44  4  0
 30 25  4  0
 44 32  4  0
  2 23  4  0
  2 44  4  0
M  END
$$$$

     RDKit          3D

 46 51  0  0  0  0  0  0  0  0999 V2000
   -7.6410    4.9930    6.8080 C   0  0  0  0  0  0  0  0  0  1  0  0
   -7.7310    4.0530    5.7140 C   0  0  0  0  0  0  0  0  0  2  0  0
   -6.4520    5.6300    6.8680 N   0  0  0  0  0  0  0  0  0  0  0  0
   -6.2260    6.5240    7.8670 N   0  0  0  0  0  0  0  0  0  0  0  0
   -7.1930    6.7500    8.7820 C   0  0  0  0  0  0  0  0  0  0  0  0
   -8.4240    6.1170    8.7580 C   0  0  0  0  0  0  0  0  0  0  0  0
   -9.3950    6.3570    9.7450 N   0  0  0  0  0  0  0  0  0  0  0  0
  -10.5620    5.6840    9.7600 C   0  0  0  0  0  0  0  0  0  0  0  0
  -11.5770    5.6820   10.5960 N   0  0  0  0  0  0  0  0  0  0  0  0
  -12.4690    4.7490   10.1080 N   0  0  0  0  0  0  0  0  0  0  0  0
  -12.0160    4.1880    8.9920 N   0  0  0  0  0  0  0  0  0  0  0  0
  -10.8400    4.7900    8.7610 N   0  0  0  0  0  0  0  0  0  0  0  0
   -9.9950    4.4790    7.6090 C   0  0  0  0  0  0  0  0  0  0  0  0
   -8.6630    5.2070    7.7200 C   0  0  0  0  0  0  0  0  0  0  0  0
  -10.7490    4.8610    6.3730 C   0  0  0  0  0  0  0  0  0  0  0  0
  -11.0350    6.2020    6.1170 C   0  0  0  0  0  0  0  0  0  0  0  0
  -11.7370    6.5580    4.9650 C   0  0  0  0  0  0  0  0  0  0  0  0
  -12.1550    5.5730    4.0710 C   0  0  0  0  0  0  0  0  0  0  0  0
  -11.8700    4.2310    4.3270 C   0  0  0  0  0  0  0  0  0  0  0  0
  -11.1660    3.8760    5.4790 C   0  0  0  0  0  0  0  0  0  0  0  0
  -12.0160    7.8660    4.7150 O   0  0  0  0  0  0  0  0  0  0  0  0
   -6.8990    7.6510    9.7710 O   0  0  0  0  0  0  0  0  0  0  0  0
   -6.8669    3.0592    5.4126 N   0  0  0  0  0  0  0  0  0  0  0  0
   -7.3084    2.3809    4.3642 N   0  0  0  0  0  0  0  0  0  0  0  0
   -8.4840    2.9300    4.0110 C   0  0  0  0  0  0  0  0  0  0  0  0
   -9.4547    2.3601    2.6130 S   0  0  0  0  0  0  0  0  0  0  0  0
  -10.4373    1.2089    3.6300 C   0  0  0  0  0  0  0  0  0  0  0  0
  -11.4469    0.5032    2.7731 C   0  0  0  0  0  0  0  0  0  0  0  0
  -11.2953   -0.7321    2.5654 O   0  0  0  0  0  0  0  0  0  0  0  0
  -12.5768    1.1966    2.1929 N   0  0  0  0  0  0  0  0  0  0  0  0
  -13.0070    2.4920    2.7404 C   0  0  0  0  0  0  0  0  0  0  0  0
  -13.4003    0.5256    1.1755 C   0  0  0  0  0  0  0  0  0  0  0  0
  -12.5934    0.2162   -0.0701 C   0  0  0  0  0  0  0  0  0  0  0  0
  -12.3388   -1.1300   -0.3921 C   0  0  0  0  0  0  0  0  0  0  0  0
  -11.5979   -1.4661   -1.5264 C   0  0  0  0  0  0  0  0  0  0  0  0
  -11.1041   -0.4651   -2.3732 C   0  0  0  0  0  0  0  0  0  0  0  0
  -10.2674   -0.8221   -3.5730 C   0  0  0  0  0  0  0  0  0  0  0  0
  -11.3395    0.8804   -2.0578 C   0  0  0  0  0  0  0  0  0  0  0  0
  -12.0944    1.2361   -0.9235 C   0  0  0  0  0  0  0  0  0  0  0  0
  -12.2962    2.6986   -0.6225 C   0  0  0  0  0  0  0  0  0  0  0  0
   -8.8219    3.9523    4.8216 N   0  0  0  0  0  0  0  0  0  0  0  0
   -9.9257    4.9033    4.6327 C   0  0  0  0  0  0  0  0  0  0  0  0
   -9.5564    5.9815    3.6045 C   0  0  0  0  0  0  0  0  0  0  0  0
   -8.4905    6.8994    4.1206 C   0  0  0  0  0  0  0  0  0  0  0  0
   -8.7117    7.6301    5.1252 O   0  0  0  0  0  0  0  0  0  0  0  0
   -7.2556    6.9569    3.4858 O   0  0  0  0  0  0  0  0  0  0  0  0
  1  3  4  0
  1 14  4  0
  1  2  1  0
  3  4  4  0
  4  5  4  0
  5  6  4  0
  5 22  1  0
  6  7  1  0
  6 14  4  0
  7  8  1  0
  8  9  4  0
  8 12  4  0
  9 10  4  0
 10 11  4  0
 11 12  4  0
 12 13  1  0
 13 14  1  0
 13 15  1  6
 15 16  4  0
 15 20  4  0
 16 17  4  0
 17 18  4  0
 17 21  1  0
 18 19  4  0
 19 20  4  0
 23 24  4  0
 24 25  4  0
 25 26  1  0
 26 27  1  0
 27 28  1  0
 28 29  2  0
 28 30  1  0
 30 31  1  0
 30 32  1  0
 32 33  1  0
 33 34  4  0
 34 35  4  0
 35 36  4  0
 36 37  1  0
 36 38  4  0
 38 39  4  0
 39 40  1  0
 25 41  4  0
 41 42  1  0
 42 43  1  0
 43 44  1  0
 44 45  2  0
 44 46  1  0
 39 33  4  0
  2 23  4  0
  2 41  4  0
M  CHG  1  46  -1
M  END
$$$$

     RDKit          3D

 46 51  0  0  0  0  0  0  0  0999 V2000
   -7.6410    4.9930    6.8080 C   0  0  0  0  0  0  0  0  0  1  0  0
   -7.7310    4.0530    5.7140 C   0  0  0  0  0  0  0  0  0  2  0  0
   -6.4520    5.6300    6.8680 N   0  0  0  0  0  0  0  0  0  0  0  0
   -6.2260    6.5240    7.8670 N   0  0  0  0  0  0  0  0  0  0  0  0
   -7.1930    6.7500    8.7820 C   0  0  0  0  0  0  0  0  0  0  0  0
   -8.4240    6.1170    8.7580 C   0  0  0  0  0  0  0  0  0  0  0  0
   -9.3950    6.3570    9.7450 N   0  0  0  0  0  0  0  0  0  0  0  0
  -10.5620    5.6840    9.7600 C   0  0  0  0  0  0  0  0  0  0  0  0
  -11.5770    5.6820   10.5960 N   0  0  0  0  0  0  0  0  0  0  0  0
  -12.4690    4.7490   10.1080 N   0  0  0  0  0  0  0  0  0  0  0  0
  -12.0160    4.1880    8.9920 N   0  0  0  0  0  0  0  0  0  0  0  0
  -10.8400    4.7900    8.7610 N   0  0  0  0  0  0  0  0  0  0  0  0
   -9.9950    4.4790    7.6090 C   0  0  0  0  0  0  0  0  0  0  0  0
   -8.6630    5.2070    7.7200 C   0  0  0  0  0  0  0  0  0  0  0  0
  -10.7490    4.8610    6.3730 C   0  0  0  0  0  0  0  0  0  0  0  0
  -11.0350    6.2020    6.1170 C   0  0  0  0  0  0  0  0  0  0  0  0
  -11.7370    6.5580    4.9650 C   0  0  0  0  0  0  0  0  0  0  0  0
  -12.1550    5.5730    4.0710 C   0  0  0  0  0  0  0  0  0  0  0  0
  -11.8700    4.2310    4.3270 C   0  0  0  0  0  0  0  0  0  0  0  0
  -11.1660    3.8760    5.4790 C   0  0  0  0  0  0  0  0  0  0  0  0
  -12.0160    7.8660    4.7150 O   0  0  0  0  0  0  0  0  0  0  0  0
   -6.8990    7.6510    9.7710 O   0  0  0  0  0  0  0  0  0  0  0  0
   -6.8748    3.0473    5.4237 N   0  0  0  0  0  0  0  0  0  0  0  0
   -7.2944    2.4038    4.3443 N   0  0  0  0  0  0  0  0  0  0  0  0
   -8.4482    2.9865    3.9642 C   0  0  0  0  0  0  0  0  0  0  0  0
   -9.3472    2.5195    2.4805 S   0  0  0  0  0  0  0  0  0  0  0  0
  -10.4539    1.3500    3.3461 C   0  0  0  0  0  0  0  0  0  0  0  0
   -9.7265    0.0828    3.7156 C   0  0  0  0  0  0  0  0  0  0  0  0
   -9.5342   -0.1449    4.9442 O   0  0  0  0  0  0  0  0  0  0  0  0
   -9.2657   -0.8750    2.7254 N   0  0  0  0  0  0  0  0  0  0  0  0
   -8.3399   -1.9357    3.1509 C   0  0  0  0  0  0  0  0  0  0  0  0
   -9.4350   -0.6444    1.2770 C   0  0  0  0  0  0  0  0  0  0  0  0
   -9.9322   -1.8873    0.5667 C   0  0  0  0  0  0  0  0  0  0  0  0
   -9.0654   -2.5507   -0.3210 C   0  0  0  0  0  0  0  0  0  0  0  0
   -9.4836   -3.6971   -0.9989 C   0  0  0  0  0  0  0  0  0  0  0  0
  -10.7828   -4.1958   -0.8160 C   0  0  0  0  0  0  0  0  0  0  0  0
  -11.2263   -5.4426   -1.5249 C   0  0  0  0  0  0  0  0  0  0  0  0
  -11.6513   -3.5472    0.0693 C   0  0  0  0  0  0  0  0  0  0  0  0
  -11.2440   -2.3948    0.7658 C   0  0  0  0  0  0  0  0  0  0  0  0
  -12.2295   -1.7046    1.6717 C   0  0  0  0  0  0  0  0  0  0  0  0
   -8.7958    3.9947    4.7904 N   0  0  0  0  0  0  0  0  0  0  0  0
   -9.8499    4.9928    4.5787 C   0  0  0  0  0  0  0  0  0  0  0  0
   -9.2928    6.1912    3.7968 C   0  0  0  0  0  0  0  0  0  0  0  0
  -10.3222    7.2580    3.5385 C   0  0  0  0  0  0  0  0  0  0  0  0
  -11.5162    7.1293    3.9301 O   0  0  0  0  0  0  0  0  0  0  0  0
   -9.9498    8.4099    2.8528 O   0  0  0  0  0  0  0  0  0  0  0  0
  1  3  4  0
  1 14  4  0
  1  2  1  0
  3  4  4  0
  4  5  4  0
  5  6  4  0
  5 22  1  0
  6  7  1  0
  6 14  4  0
  7  8  1  0
  8  9  4  0
  8 12  4  0
  9 10  4  0
 10 11  4  0
 11 12  4  0
 12 13  1  0
 13 14  1  0
 13 15  1  6
 15 16  4  0
 15 20  4  0
 16 17  4  0
 17 18  4  0
 17 21  1  0
 18 19  4  0
 19 20  4  0
 23 24  4  0
 24 25  4  0
 25 26  1  0
 26 27  1  0
 27 28  1  0
 28 29  2  0
 28 30  1  0
 30 31  1  0
 30 32  1  0
 32 33  1  0
 33 34  4  0
 34 35  4  0
 35 36  4  0
 36 37  1  0
 36 38  4  0
 38 39  4  0
 39 40  1  0
 25 41  4  0
 41 42  1  0
 42 43  1  0
 43 44  1  0
 44 45  2  0
 44 46  1  0
 39 33  4  0
  2 23  4  0
  2 41  4  0
M  CHG  1  46  -1
M  END
$$$$

     RDKit          3D

 41 47  0  0  0  0  0  0  0  0999 V2000
   -7.6410    4.9930    6.8080 C   0  0  0  0  0  0  0  0  0  1  0  0
   -7.7310    4.0530    5.7140 C   0  0  0  0  0  0  0  0  0  2  0  0
   -6.4520    5.6300    6.8680 N   0  0  0  0  0  0  0  0  0  0  0  0
   -6.2260    6.5240    7.8670 N   0  0  0  0  0  0  0  0  0  0  0  0
   -7.1930    6.7500    8.7820 C   0  0  0  0  0  0  0  0  0  0  0  0
   -8.4240    6.1170    8.7580 C   0  0  0  0  0  0  0  0  0  0  0  0
   -9.3950    6.3570    9.7450 N   0  0  0  0  0  0  0  0  0  0  0  0
  -10.5620    5.6840    9.7600 C   0  0  0  0  0  0  0  0  0  0  0  0
  -11.5770    5.6820   10.5960 N   0  0  0  0  0  0  0  0  0  0  0  0
  -12.4690    4.7490   10.1080 N   0  0  0  0  0  0  0  0  0  0  0  0
  -12.0160    4.1880    8.9920 N   0  0  0  0  0  0  0  0  0  0  0  0
  -10.8400    4.7900    8.7610 N   0  0  0  0  0  0  0  0  0  0  0  0
   -9.9950    4.4790    7.6090 C   0  0  0  0  0  0  0  0  0  0  0  0
   -8.6630    5.2070    7.7200 C   0  0  0  0  0  0  0  0  0  0  0  0
  -10.7490    4.8610    6.3730 C   0  0  0  0  0  0  0  0  0  0  0  0
  -11.0350    6.2020    6.1170 C   0  0  0  0  0  0  0  0  0  0  0  0
  -11.7370    6.5580    4.9650 C   0  0  0  0  0  0  0  0  0  0  0  0
  -12.1550    5.5730    4.0710 C   0  0  0  0  0  0  0  0  0  0  0  0
  -11.8700    4.2310    4.3270 C   0  0  0  0  0  0  0  0  0  0  0  0
  -11.1660    3.8760    5.4790 C   0  0  0  0  0  0  0  0  0  0  0  0
  -12.0160    7.8660    4.7150 O   0  0  0  0  0  0  0  0  0  0  0  0
   -6.8990    7.6510    9.7710 O   0  0  0  0  0  0  0  0  0  0  0  0
   -6.7875    3.0522    5.4316 C   0  0  0  0  0  0  0  0  0  0  0  0
   -6.9544    2.1221    4.4027 C   0  0  0  0  0  0  0  0  0  0  0  0
   -5.9758    1.1608    4.1176 C   0  0  0  0  0  0  0  0  0  0  0  0
   -6.1783    0.2455    3.0806 C   0  0  0  0  0  0  0  0  0  0  0  0
   -7.3596    0.2687    2.3281 C   0  0  0  0  0  0  0  0  0  0  0  0
   -7.5088   -0.6663    1.2930 O   0  0  0  0  0  0  0  0  0  0  0  0
   -8.7300   -1.1723    0.8249 C   0  0  0  0  0  0  0  0  0  0  0  0
   -9.7764   -1.0594    1.5210 O   0  0  0  0  0  0  0  0  0  0  0  0
   -8.7761   -1.8942   -0.4656 C   0  0  0  0  0  0  0  0  0  0  0  0
   -9.9815   -2.4343   -0.9459 C   0  0  0  0  0  0  0  0  0  0  0  0
   -9.9976   -3.1100   -2.1686 C   0  0  0  0  0  0  0  0  0  0  0  0
   -8.8536   -3.2436   -2.8898 N   0  0  0  0  0  0  0  0  0  0  0  0
   -7.6730   -2.7320   -2.4528 C   0  0  0  0  0  0  0  0  0  0  0  0
   -7.6116   -2.0489   -1.2355 C   0  0  0  0  0  0  0  0  0  0  0  0
   -8.3344    1.2470    2.6034 C   0  0  0  0  0  0  0  0  0  0  0  0
   -8.1374    2.1674    3.6387 C   0  0  0  0  0  0  0  0  0  0  0  0
   -9.0642    3.0852    3.8949 O   0  0  0  0  0  0  0  0  0  0  0  0
   -8.9385    3.9864    4.8653 C   0  0  0  0  0  0  0  0  0  0  0  0
   -9.8529    4.8380    5.0273 O   0  0  0  0  0  0  0  0  0  0  0  0
  1  3  4  0
  1 14  4  0
  1  2  1  0
  3  4  4  0
  4  5  4  0
  5  6  4  0
  5 22  1  0
  6  7  1  0
  6 14  4  0
  7  8  1  0
  8  9  4  0
  8 12  4  0
  9 10  4  0
 10 11  4  0
 11 12  4  0
 12 13  1  0
 13 14  1  0
 13 15  1  6
 15 16  4  0
 15 20  4  0
 16 17  4  0
 17 18  4  0
 17 21  1  0
 18 19  4  0
 19 20  4  0
 23 24  4  0
 24 25  4  0
 25 26  4  0
 26 27  4  0
 27 28  1  0
 28 29  1  0
 29 30  2  0
 29 31  1  0
 31 32  4  0
 32 33  4  0
 33 34  4  0
 34 35  4  0
 35 36  4  0
 27 37  4  0
 37 38  4  0
 38 39  4  0
 39 40  4  0
 40 41  2  0
 38 24  4  0
 36 31  4  0
  2 23  4  0
  2 40  4  0
M  END
$$$$

     RDKit          3D

 41 47  0  0  0  0  0  0  0  0999 V2000
   -7.6410    4.9930    6.8080 C   0  0  0  0  0  0  0  0  0  1  0  0
   -7.7310    4.0530    5.7140 C   0  0  0  0  0  0  0  0  0  2  0  0
   -6.4520    5.6300    6.8680 N   0  0  0  0  0  0  0  0  0  0  0  0
   -6.2260    6.5240    7.8670 N   0  0  0  0  0  0  0  0  0  0  0  0
   -7.1930    6.7500    8.7820 C   0  0  0  0  0  0  0  0  0  0  0  0
   -8.4240    6.1170    8.7580 C   0  0  0  0  0  0  0  0  0  0  0  0
   -9.3950    6.3570    9.7450 N   0  0  0  0  0  0  0  0  0  0  0  0
  -10.5620    5.6840    9.7600 C   0  0  0  0  0  0  0  0  0  0  0  0
  -11.5770    5.6820   10.5960 N   0  0  0  0  0  0  0  0  0  0  0  0
  -12.4690    4.7490   10.1080 N   0  0  0  0  0  0  0  0  0  0  0  0
  -12.0160    4.1880    8.9920 N   0  0  0  0  0  0  0  0  0  0  0  0
  -10.8400    4.7900    8.7610 N   0  0  0  0  0  0  0  0  0  0  0  0
   -9.9950    4.4790    7.6090 C   0  0  0  0  0  0  0  0  0  0  0  0
   -8.6630    5.2070    7.7200 C   0  0  0  0  0  0  0  0  0  0  0  0
  -10.7490    4.8610    6.3730 C   0  0  0  0  0  0  0  0  0  0  0  0
  -11.0350    6.2020    6.1170 C   0  0  0  0  0  0  0  0  0  0  0  0
  -11.7370    6.5580    4.9650 C   0  0  0  0  0  0  0  0  0  0  0  0
  -12.1550    5.5730    4.0710 C   0  0  0  0  0  0  0  0  0  0  0  0
  -11.8700    4.2310    4.3270 C   0  0  0  0  0  0  0  0  0  0  0  0
  -11.1660    3.8760    5.4790 C   0  0  0  0  0  0  0  0  0  0  0  0
  -12.0160    7.8660    4.7150 O   0  0  0  0  0  0  0  0  0  0  0  0
   -6.8990    7.6510    9.7710 O   0  0  0  0  0  0  0  0  0  0  0  0
   -6.7876    3.0518    5.4322 C   0  0  0  0  0  0  0  0  0  0  0  0
   -6.9540    2.1220    4.4031 C   0  0  0  0  0  0  0  0  0  0  0  0
   -5.9829    1.1498    4.1289 C   0  0  0  0  0  0  0  0  0  0  0  0
   -6.1845    0.2330    3.0924 C   0  0  0  0  0  0  0  0  0  0  0  0
   -7.3557    0.2863    2.3120 C   0  0  0  0  0  0  0  0  0  0  0  0
   -7.6037   -0.6208    1.2710 O   0  0  0  0  0  0  0  0  0  0  0  0
   -6.6236   -1.2430    0.4844 C   0  0  0  0  0  0  0  0  0  0  0  0
   -5.4481   -0.7855    0.4492 O   0  0  0  0  0  0  0  0  0  0  0  0
   -6.9884   -2.4064   -0.3535 C   0  0  0  0  0  0  0  0  0  0  0  0
   -8.3007   -2.9068   -0.3424 C   0  0  0  0  0  0  0  0  0  0  0  0
   -8.6279   -4.0074   -1.1387 C   0  0  0  0  0  0  0  0  0  0  0  0
   -7.6811   -4.5910   -1.9193 N   0  0  0  0  0  0  0  0  0  0  0  0
   -6.4028   -4.1308   -1.9516 C   0  0  0  0  0  0  0  0  0  0  0  0
   -6.0322   -3.0329   -1.1713 C   0  0  0  0  0  0  0  0  0  0  0  0
   -8.3321    1.2473    2.6036 C   0  0  0  0  0  0  0  0  0  0  0  0
   -8.1363    2.1680    3.6383 C   0  0  0  0  0  0  0  0  0  0  0  0
   -9.0645    3.0839    3.8958 O   0  0  0  0  0  0  0  0  0  0  0  0
   -8.9391    3.9853    4.8661 C   0  0  0  0  0  0  0  0  0  0  0  0
   -9.8541    4.8360    5.0287 O   0  0  0  0  0  0  0  0  0  0  0  0
  1  3  4  0
  1 14  4  0
  1  2  1  0
  3  4  4  0
  4  5  4  0
  5  6  4  0
  5 22  1  0
  6  7  1  0
  6 14  4  0
  7  8  1  0
  8  9  4  0
  8 12  4  0
  9 10  4  0
 10 11  4  0
 11 12  4  0
 12 13  1  0
 13 14  1  0
 13 15  1  6
 15 16  4  0
 15 20  4  0
 16 17  4  0
 17 18  4  0
 17 21  1  0
 18 19  4  0
 19 20  4  0
 23 24  4  0
 24 25  4  0
 25 26  4  0
 26 27  4  0
 27 28  1  0
 28 29  1  0
 29 30  2  0
 29 31  1  0
 31 32  4  0
 32 33  4  0
 33 34  4  0
 34 35  4  0
 35 36  4  0
 27 37  4  0
 37 38  4  0
 38 39  4  0
 39 40  4  0
 40 41  2  0
 38 24  4  0
 36 31  4  0
  2 23  4  0
  2 40  4  0
M  END
$$$$

     RDKit          3D

 41 47  0  0  0  0  0  0  0  0999 V2000
   -7.6410    4.9930    6.8080 C   0  0  0  0  0  0  0  0  0  1  0  0
   -7.7310    4.0530    5.7140 C   0  0  0  0  0  0  0  0  0  2  0  0
   -6.4520    5.6300    6.8680 N   0  0  0  0  0  0  0  0  0  0  0  0
   -6.2260    6.5240    7.8670 N   0  0  0  0  0  0  0  0  0  0  0  0
   -7.1930    6.7500    8.7820 C   0  0  0  0  0  0  0  0  0  0  0  0
   -8.4240    6.1170    8.7580 C   0  0  0  0  0  0  0  0  0  0  0  0
   -9.3950    6.3570    9.7450 N   0  0  0  0  0  0  0  0  0  0  0  0
  -10.5620    5.6840    9.7600 C   0  0  0  0  0  0  0  0  0  0  0  0
  -11.5770    5.6820   10.5960 N   0  0  0  0  0  0  0  0  0  0  0  0
  -12.4690    4.7490   10.1080 N   0  0  0  0  0  0  0  0  0  0  0  0
  -12.0160    4.1880    8.9920 N   0  0  0  0  0  0  0  0  0  0  0  0
  -10.8400    4.7900    8.7610 N   0  0  0  0  0  0  0  0  0  0  0  0
   -9.9950    4.4790    7.6090 C   0  0  0  0  0  0  0  0  0  0  0  0
   -8.6630    5.2070    7.7200 C   0  0  0  0  0  0  0  0  0  0  0  0
  -10.7490    4.8610    6.3730 C   0  0  0  0  0  0  0  0  0  0  0  0
  -11.0350    6.2020    6.1170 C   0  0  0  0  0  0  0  0  0  0  0  0
  -11.7370    6.5580    4.9650 C   0  0  0  0  0  0  0  0  0  0  0  0
  -12.1550    5.5730    4.0710 C   0  0  0  0  0  0  0  0  0  0  0  0
  -11.8700    4.2310    4.3270 C   0  0  0  0  0  0  0  0  0  0  0  0
  -11.1660    3.8760    5.4790 C   0  0  0  0  0  0  0  0  0  0  0  0
  -12.0160    7.8660    4.7150 O   0  0  0  0  0  0  0  0  0  0  0  0
   -6.8990    7.6510    9.7710 O   0  0  0  0  0  0  0  0  0  0  0  0
   -6.7877    3.0518    5.4322 C   0  0  0  0  0  0  0  0  0  0  0  0
   -6.9542    2.1219    4.4030 C   0  0  0  0  0  0  0  0  0  0  0  0
   -5.9832    1.1497    4.1289 C   0  0  0  0  0  0  0  0  0  0  0  0
   -6.1849    0.2329    3.0924 C   0  0  0  0  0  0  0  0  0  0  0  0
   -7.3561    0.2862    2.3120 C   0  0  0  0  0  0  0  0  0  0  0  0
   -7.6042   -0.6208    1.2711 O   0  0  0  0  0  0  0  0  0  0  0  0
   -6.6242   -1.2432    0.4845 C   0  0  0  0  0  0  0  0  0  0  0  0
   -5.4486   -0.7858    0.4493 O   0  0  0  0  0  0  0  0  0  0  0  0
   -6.9890   -2.4066   -0.3535 C   0  0  0  0  0  0  0  0  0  0  0  0
   -6.0329   -3.0332   -1.1712 C   0  0  0  0  0  0  0  0  0  0  0  0
   -6.4036   -4.1311   -1.9515 C   0  0  0  0  0  0  0  0  0  0  0  0
   -7.6819   -4.5910   -1.9192 N   0  0  0  0  0  0  0  0  0  0  0  0
   -8.6287   -4.0074   -1.1384 C   0  0  0  0  0  0  0  0  0  0  0  0
   -8.3014   -2.9069   -0.3423 C   0  0  0  0  0  0  0  0  0  0  0  0
   -8.3323    1.2474    2.6037 C   0  0  0  0  0  0  0  0  0  0  0  0
   -8.1364    2.1681    3.6384 C   0  0  0  0  0  0  0  0  0  0  0  0
   -9.0646    3.0840    3.8958 O   0  0  0  0  0  0  0  0  0  0  0  0
   -8.9391    3.9854    4.8661 C   0  0  0  0  0  0  0  0  0  0  0  0
   -9.8541    4.8362    5.0287 O   0  0  0  0  0  0  0  0  0  0  0  0
  1  3  4  0
  1 14  4  0
  1  2  1  0
  3  4  4  0
  4  5  4  0
  5  6  4  0
  5 22  1  0
  6  7  1  0
  6 14  4  0
  7  8  1  0
  8  9  4  0
  8 12  4  0
  9 10  4  0
 10 11  4  0
 11 12  4  0
 12 13  1  0
 13 14  1  0
 13 15  1  6
 15 16  4  0
 15 20  4  0
 16 17  4  0
 17 18  4  0
 17 21  1  0
 18 19  4  0
 19 20  4  0
 23 24  4  0
 24 25  4  0
 25 26  4  0
 26 27  4  0
 27 28  1  0
 28 29  1  0
 29 30  2  0
 29 31  1  0
 31 32  4  0
 32 33  4  0
 33 34  4  0
 34 35  4  0
 35 36  4  0
 27 37  4  0
 37 38  4  0
 38 39  4  0
 39 40  4  0
 40 41  2  0
 38 24  4  0
 36 31  4  0
  2 23  4  0
  2 40  4  0
M  END
$$$$

     RDKit          3D

 43 49  0  0  0  0  0  0  0  0999 V2000
   -7.6410    4.9930    6.8080 C   0  0  0  0  0  0  0  0  0  1  0  0
   -7.7310    4.0530    5.7140 C   0  0  0  0  0  0  0  0  0  2  0  0
   -6.4520    5.6300    6.8680 N   0  0  0  0  0  0  0  0  0  0  0  0
   -6.2260    6.5240    7.8670 N   0  0  0  0  0  0  0  0  0  0  0  0
   -7.1930    6.7500    8.7820 C   0  0  0  0  0  0  0  0  0  0  0  0
   -8.4240    6.1170    8.7580 C   0  0  0  0  0  0  0  0  0  0  0  0
   -9.3950    6.3570    9.7450 N   0  0  0  0  0  0  0  0  0  0  0  0
  -10.5620    5.6840    9.7600 C   0  0  0  0  0  0  0  0  0  0  0  0
  -11.5770    5.6820   10.5960 N   0  0  0  0  0  0  0  0  0  0  0  0
  -12.4690    4.7490   10.1080 N   0  0  0  0  0  0  0  0  0  0  0  0
  -12.0160    4.1880    8.9920 N   0  0  0  0  0  0  0  0  0  0  0  0
  -10.8400    4.7900    8.7610 N   0  0  0  0  0  0  0  0  0  0  0  0
   -9.9950    4.4790    7.6090 C   0  0  0  0  0  0  0  0  0  0  0  0
   -8.6630    5.2070    7.7200 C   0  0  0  0  0  0  0  0  0  0  0  0
  -10.7490    4.8610    6.3730 C   0  0  0  0  0  0  0  0  0  0  0  0
  -11.0350    6.2020    6.1170 C   0  0  0  0  0  0  0  0  0  0  0  0
  -11.7370    6.5580    4.9650 C   0  0  0  0  0  0  0  0  0  0  0  0
  -12.1550    5.5730    4.0710 C   0  0  0  0  0  0  0  0  0  0  0  0
  -11.8700    4.2310    4.3270 C   0  0  0  0  0  0  0  0  0  0  0  0
  -11.1660    3.8760    5.4790 C   0  0  0  0  0  0  0  0  0  0  0  0
  -12.0160    7.8660    4.7150 O   0  0  0  0  0  0  0  0  0  0  0  0
   -6.8990    7.6510    9.7710 O   0  0  0  0  0  0  0  0  0  0  0  0
   -6.7739    3.0900    5.3369 C   0  0  0  0  0  0  0  0  0  0  0  0
   -7.1173    2.2494    4.2809 C   0  0  0  0  0  0  0  0  0  0  0  0
   -6.2748    1.2060    3.6691 C   0  0  0  0  0  0  0  0  0  0  0  0
   -6.8052    0.3900    2.8678 O   0  0  0  0  0  0  0  0  0  0  0  0
   -4.8656    1.1347    3.9485 N   0  0  0  0  0  0  0  0  0  0  0  0
   -4.0001    0.1234    3.4157 C   0  0  0  0  0  0  0  0  0  0  0  0
   -4.4226   -0.9357    2.6918 N   0  0  0  0  0  0  0  0  0  0  0  0
   -3.3847   -1.7237    2.2973 C   0  0  0  0  0  0  0  0  0  1  0  0
   -3.6034   -2.9354    1.4884 C   0  0  0  0  0  0  0  0  0  2  0  0
   -2.6368   -3.7603    0.9419 C   0  0  0  0  0  0  0  0  0  0  0  0
   -3.2259   -4.7517    0.2488 N   0  0  0  0  0  0  0  0  0  0  0  0
   -4.5589   -4.5778    0.3579 C   0  0  0  0  0  0  0  0  0  0  0  0
   -5.5526   -5.4650   -0.2771 C   0  0  0  0  0  0  0  0  0  0  0  0
   -6.9426   -5.3738    0.0446 N   0  0  0  0  0  0  0  0  0  0  0  0
   -5.1695   -6.3199   -1.1210 O   0  0  0  0  0  0  0  0  0  0  0  0
   -4.8323   -3.4560    1.1221 C   0  0  0  0  0  0  0  0  0  0  0  0
   -2.1246   -1.2869    2.7106 C   0  0  0  0  0  0  0  0  0  0  0  0
   -2.3300    0.1271    3.5982 S   0  0  0  0  0  0  0  0  0  0  0  0
   -8.6784    2.6322    3.7837 S   0  0  0  0  0  0  0  0  0  0  0  0
   -8.9290    3.8768    4.8853 C   0  0  0  0  0  0  0  0  0  0  0  0
  -10.1846    4.6880    4.9487 C   0  0  0  0  0  0  0  0  0  0  0  0
  1  3  4  0
  1 14  4  0
  1  2  1  0
  3  4  4  0
  4  5  4  0
  5  6  4  0
  5 22  1  0
  6  7  1  0
  6 14  4  0
  7  8  1  0
  8  9  4  0
  8 12  4  0
  9 10  4  0
 10 11  4  0
 11 12  4  0
 12 13  1  0
 13 14  1  0
 13 15  1  6
 15 16  4  0
 15 20  4  0
 16 17  4  0
 17 18  4  0
 17 21  1  0
 18 19  4  0
 19 20  4  0
 23 24  4  0
 24 25  1  0
 25 26  2  0
 25 27  1  0
 27 28  1  0
 28 29  4  0
 29 30  4  0
 30 31  1  0
 31 32  4  0
 32 33  4  0
 33 34  4  0
 34 35  1  0
 35 36  1  0
 35 37  2  0
 34 38  4  0
 30 39  4  0
 39 40  4  0
 24 41  4  0
 41 42  4  0
 42 43  1  0
 40 28  4  0
 38 31  4  0
  2 23  4  0
  2 42  4  0
M  END
$$$$

     RDKit          3D

 45 51  0  0  0  0  0  0  0  0999 V2000
   -7.6410    4.9930    6.8080 C   0  0  0  0  0  0  0  0  0  1  0  0
   -7.7310    4.0530    5.7140 C   0  0  0  0  0  0  0  0  0  2  0  0
   -6.4520    5.6300    6.8680 N   0  0  0  0  0  0  0  0  0  0  0  0
   -6.2260    6.5240    7.8670 N   0  0  0  0  0  0  0  0  0  0  0  0
   -7.1930    6.7500    8.7820 C   0  0  0  0  0  0  0  0  0  0  0  0
   -8.4240    6.1170    8.7580 C   0  0  0  0  0  0  0  0  0  0  0  0
   -9.3950    6.3570    9.7450 N   0  0  0  0  0  0  0  0  0  0  0  0
  -10.5620    5.6840    9.7600 C   0  0  0  0  0  0  0  0  0  0  0  0
  -11.5770    5.6820   10.5960 N   0  0  0  0  0  0  0  0  0  0  0  0
  -12.4690    4.7490   10.1080 N   0  0  0  0  0  0  0  0  0  0  0  0
  -12.0160    4.1880    8.9920 N   0  0  0  0  0  0  0  0  0  0  0  0
  -10.8400    4.7900    8.7610 N   0  0  0  0  0  0  0  0  0  0  0  0
   -9.9950    4.4790    7.6090 C   0  0  0  0  0  0  0  0  0  0  0  0
   -8.6630    5.2070    7.7200 C   0  0  0  0  0  0  0  0  0  0  0  0
  -10.7490    4.8610    6.3730 C   0  0  0  0  0  0  0  0  0  0  0  0
  -11.0350    6.2020    6.1170 C   0  0  0  0  0  0  0  0  0  0  0  0
  -11.7370    6.5580    4.9650 C   0  0  0  0  0  0  0  0  0  0  0  0
  -12.1550    5.5730    4.0710 C   0  0  0  0  0  0  0  0  0  0  0  0
  -11.8700    4.2310    4.3270 C   0  0  0  0  0  0  0  0  0  0  0  0
  -11.1660    3.8760    5.4790 C   0  0  0  0  0  0  0  0  0  0  0  0
  -12.0160    7.8660    4.7150 O   0  0  0  0  0  0  0  0  0  0  0  0
   -6.8990    7.6510    9.7710 O   0  0  0  0  0  0  0  0  0  0  0  0
   -6.8338    3.1026    5.3707 N   0  0  0  0  0  0  0  0  0  0  0  0
   -7.3217    2.3912    4.3678 N   0  0  0  0  0  0  0  0  0  0  0  0
   -6.6074    1.2877    3.7284 C   0  0  0  0  0  0  0  0  0  0  0  0
   -7.4024    0.0466    3.8176 N   0  0  0  0  0  0  0  0  0  0  0  0
   -6.9559   -0.9638    2.8389 C   0  0  0  0  0  0  0  0  0  0  0  0
   -5.5800   -1.5622    3.2007 C   0  0  0  0  0  0  0  0  0  0  0  0
   -5.2922   -1.4782    4.6475 N   0  0  0  0  0  0  0  0  0  0  0  0
   -4.0815   -2.6523    5.0945 S   0  0  0  0  0  0  0  0  0  0  0  0
   -3.7181   -2.4772    6.5419 O   0  0  0  0  0  0  0  0  0  0  0  0
   -4.6106   -4.0474    4.8994 O   0  0  0  0  0  0  0  0  0  0  0  0
   -2.6349   -2.4119    4.1167 C   0  0  0  0  0  0  0  0  0  0  0  0
   -2.3915   -3.2207    2.9953 C   0  0  0  0  0  0  0  0  0  0  0  0
   -1.2480   -3.0227    2.2186 C   0  0  0  0  0  0  0  0  0  0  0  0
   -0.3392   -2.0085    2.5492 C   0  0  0  0  0  0  0  0  0  0  0  0
    0.9019   -1.8270    1.7284 C   0  0  0  0  0  0  0  0  0  0  0  0
   -0.5850   -1.1969    3.6689 C   0  0  0  0  0  0  0  0  0  0  0  0
   -1.7304   -1.3959    4.4457 C   0  0  0  0  0  0  0  0  0  0  0  0
   -6.5093   -1.6694    5.4460 C   0  0  0  0  0  0  0  0  0  0  0  0
   -7.4753   -0.4944    5.1998 C   0  0  0  0  0  0  0  0  0  0  0  0
   -8.5462    2.8676    4.0711 C   0  0  0  0  0  0  0  0  0  0  0  0
   -9.5087    2.2786    2.8759 S   0  0  0  0  0  0  0  0  0  0  0  0
   -8.8669    3.8956    4.8837 N   0  0  0  0  0  0  0  0  0  0  0  0
  -10.1038    4.6748    4.9065 C   0  0  0  0  0  0  0  0  0  0  0  0
  1  3  4  0
  1 14  4  0
  1  2  1  0
  3  4  4  0
  4  5  4  0
  5  6  4  0
  5 22  1  0
  6  7  1  0
  6 14  4  0
  7  8  1  0
  8  9  4  0
  8 12  4  0
  9 10  4  0
 10 11  4  0
 11 12  4  0
 12 13  1  0
 13 14  1  0
 13 15  1  6
 15 16  4  0
 15 20  4  0
 16 17  4  0
 17 18  4  0
 17 21  1  0
 18 19  4  0
 19 20  4  0
 23 24  4  0
 24 25  1  0
 25 26  1  0
 26 27  1  0
 27 28  1  0
 28 29  1  0
 29 30  1  0
 30 31  2  0
 30 32  2  0
 30 33  1  0
 33 34  4  0
 34 35  4  0
 35 36  4  0
 36 37  1  0
 36 38  4  0
 38 39  4  0
 29 40  1  0
 40 41  1  0
 24 42  4  0
 42 43  2  0
 42 44  4  0
 44 45  1  0
 41 26  1  0
 39 33  4  0
  2 23  4  0
  2 44  4  0
M  END
$$$$

     RDKit          3D

 45 51  0  0  0  0  0  0  0  0999 V2000
   -7.6410    4.9930    6.8080 C   0  0  0  0  0  0  0  0  0  1  0  0
   -7.7310    4.0530    5.7140 C   0  0  0  0  0  0  0  0  0  2  0  0
   -6.4520    5.6300    6.8680 N   0  0  0  0  0  0  0  0  0  0  0  0
   -6.2260    6.5240    7.8670 N   0  0  0  0  0  0  0  0  0  0  0  0
   -7.1930    6.7500    8.7820 C   0  0  0  0  0  0  0  0  0  0  0  0
   -8.4240    6.1170    8.7580 C   0  0  0  0  0  0  0  0  0  0  0  0
   -9.3950    6.3570    9.7450 N   0  0  0  0  0  0  0  0  0  0  0  0
  -10.5620    5.6840    9.7600 C   0  0  0  0  0  0  0  0  0  0  0  0
  -11.5770    5.6820   10.5960 N   0  0  0  0  0  0  0  0  0  0  0  0
  -12.4690    4.7490   10.1080 N   0  0  0  0  0  0  0  0  0  0  0  0
  -12.0160    4.1880    8.9920 N   0  0  0  0  0  0  0  0  0  0  0  0
  -10.8400    4.7900    8.7610 N   0  0  0  0  0  0  0  0  0  0  0  0
   -9.9950    4.4790    7.6090 C   0  0  0  0  0  0  0  0  0  0  0  0
   -8.6630    5.2070    7.7200 C   0  0  0  0  0  0  0  0  0  0  0  0
  -10.7490    4.8610    6.3730 C   0  0  0  0  0  0  0  0  0  0  0  0
  -11.0350    6.2020    6.1170 C   0  0  0  0  0  0  0  0  0  0  0  0
  -11.7370    6.5580    4.9650 C   0  0  0  0  0  0  0  0  0  0  0  0
  -12.1550    5.5730    4.0710 C   0  0  0  0  0  0  0  0  0  0  0  0
  -11.8700    4.2310    4.3270 C   0  0  0  0  0  0  0  0  0  0  0  0
  -11.1660    3.8760    5.4790 C   0  0  0  0  0  0  0  0  0  0  0  0
  -12.0160    7.8660    4.7150 O   0  0  0  0  0  0  0  0  0  0  0  0
   -6.8990    7.6510    9.7710 O   0  0  0  0  0  0  0  0  0  0  0  0
   -6.7885    3.1803    5.2970 N   0  0  0  0  0  0  0  0  0  0  0  0
   -7.2810    2.4460    4.3120 N   0  0  0  0  0  0  0  0  0  0  0  0
   -6.5093    1.4441    3.5763 C   0  0  0  0  0  0  0  0  0  0  0  0
   -6.2004    1.9298    2.2162 N   0  0  0  0  0  0  0  0  0  0  0  0
   -5.3844    3.1688    2.2598 C   0  0  0  0  0  0  0  0  0  0  0  0
   -4.5553    3.3417    0.9837 C   0  0  0  0  0  0  0  0  0  0  0  0
   -3.5770    2.2443    0.8410 N   0  0  0  0  0  0  0  0  0  0  0  0
   -3.0430    2.1367   -0.8195 S   0  0  0  0  0  0  0  0  0  0  0  0
   -4.1683    1.6222   -1.6754 O   0  0  0  0  0  0  0  0  0  0  0  0
   -2.6284    3.4952   -1.3120 O   0  0  0  0  0  0  0  0  0  0  0  0
   -1.6608    1.0506   -0.9312 C   0  0  0  0  0  0  0  0  0  0  0  0
   -0.6989    1.0376    0.0871 C   0  0  0  0  0  0  0  0  0  0  0  0
    0.3973    0.1735    0.0092 C   0  0  0  0  0  0  0  0  0  0  0  0
    0.5516   -0.6751   -1.0977 C   0  0  0  0  0  0  0  0  0  0  0  0
    1.7044   -1.6323   -1.1625 C   0  0  0  0  0  0  0  0  0  0  0  0
   -0.4187   -0.6681   -2.1116 C   0  0  0  0  0  0  0  0  0  0  0  0
   -1.5150    0.1961   -2.0324 C   0  0  0  0  0  0  0  0  0  0  0  0
   -4.0706    0.9350    1.3325 C   0  0  0  0  0  0  0  0  0  0  0  0
   -5.6062    0.8590    1.3773 C   0  0  0  0  0  0  0  0  0  0  0  0
   -8.5542    2.8317    4.0953 C   0  0  0  0  0  0  0  0  0  0  0  0
   -9.5386    2.1903    2.9466 S   0  0  0  0  0  0  0  0  0  0  0  0
   -8.9015    3.8259    4.9392 N   0  0  0  0  0  0  0  0  0  0  0  0
  -10.1737    4.5470    4.9995 C   0  0  0  0  0  0  0  0  0  0  0  0
  1  3  4  0
  1 14  4  0
  1  2  1  0
  3  4  4  0
  4  5  4  0
  5  6  4  0
  5 22  1  0
  6  7  1  0
  6 14  4  0
  7  8  1  0
  8  9  4  0
  8 12  4  0
  9 10  4  0
 10 11  4  0
 11 12  4  0
 12 13  1  0
 13 14  1  0
 13 15  1  6
 15 16  4  0
 15 20  4  0
 16 17  4  0
 17 18  4  0
 17 21  1  0
 18 19  4  0
 19 20  4  0
 23 24  4  0
 24 25  1  0
 25 26  1  0
 26 27  1  0
 27 28  1  0
 28 29  1  0
 29 30  1  0
 30 31  2  0
 30 32  2  0
 30 33  1  0
 33 34  4  0
 34 35  4  0
 35 36  4  0
 36 37  1  0
 36 38  4  0
 38 39  4  0
 29 40  1  0
 40 41  1  0
 24 42  4  0
 42 43  2  0
 42 44  4  0
 44 45  1  0
 41 26  1  0
 39 33  4  0
  2 23  4  0
  2 44  4  0
M  END
$$$$

     RDKit          3D

 32 37  0  0  0  0  0  0  0  0999 V2000
   -7.6410    4.9930    6.8080 C   0  0  0  0  0  0  0  0  0  1  0  0
   -7.7310    4.0530    5.7140 C   0  0  0  0  0  0  0  0  0  2  0  0
   -6.4520    5.6300    6.8680 N   0  0  0  0  0  0  0  0  0  0  0  0
   -6.2260    6.5240    7.8670 N   0  0  0  0  0  0  0  0  0  0  0  0
   -7.1930    6.7500    8.7820 C   0  0  0  0  0  0  0  0  0  0  0  0
   -8.4240    6.1170    8.7580 C   0  0  0  0  0  0  0  0  0  0  0  0
   -9.3950    6.3570    9.7450 N   0  0  0  0  0  0  0  0  0  0  0  0
  -10.5620    5.6840    9.7600 C   0  0  0  0  0  0  0  0  0  0  0  0
  -11.5770    5.6820   10.5960 N   0  0  0  0  0  0  0  0  0  0  0  0
  -12.4690    4.7490   10.1080 N   0  0  0  0  0  0  0  0  0  0  0  0
  -12.0160    4.1880    8.9920 N   0  0  0  0  0  0  0  0  0  0  0  0
  -10.8400    4.7900    8.7610 N   0  0  0  0  0  0  0  0  0  0  0  0
   -9.9950    4.4790    7.6090 C   0  0  0  0  0  0  0  0  0  0  0  0
   -8.6630    5.2070    7.7200 C   0  0  0  0  0  0  0  0  0  0  0  0
  -10.7490    4.8610    6.3730 C   0  0  0  0  0  0  0  0  0  0  0  0
  -11.0350    6.2020    6.1170 C   0  0  0  0  0  0  0  0  0  0  0  0
  -11.7370    6.5580    4.9650 C   0  0  0  0  0  0  0  0  0  0  0  0
  -12.1550    5.5730    4.0710 C   0  0  0  0  0  0  0  0  0  0  0  0
  -11.8700    4.2310    4.3270 C   0  0  0  0  0  0  0  0  0  0  0  0
  -11.1660    3.8760    5.4790 C   0  0  0  0  0  0  0  0  0  0  0  0
  -12.0160    7.8660    4.7150 O   0  0  0  0  0  0  0  0  0  0  0  0
   -6.8990    7.6510    9.7710 O   0  0  0  0  0  0  0  0  0  0  0  0
   -8.9681    3.6782    5.0098 C   0  0  0  0  0  0  0  0  0  0  0  0
  -10.3267    4.2628    5.2402 C   0  0  0  0  0  0  0  0  0  0  0  0
   -8.7281    2.7387    4.0656 N   0  0  0  0  0  0  0  0  0  0  0  0
   -7.4121    2.4793    4.1255 C   0  0  0  0  0  0  0  0  0  0  0  0
   -6.6981    1.5759    3.3394 C   0  0  0  0  0  0  0  0  0  0  0  0
   -5.3176    1.4478    3.5721 C   0  0  0  0  0  0  0  0  0  0  0  0
   -4.6880    2.2136    4.5773 C   0  0  0  0  0  0  0  0  0  0  0  0
   -3.3574    2.0742    4.7964 F   0  0  0  0  0  0  0  0  0  0  0  0
   -5.4336    3.1172    5.3565 C   0  0  0  0  0  0  0  0  0  0  0  0
   -6.8026    3.2327    5.0978 C   0  0  0  0  0  0  0  0  0  0  0  0
  1  3  4  0
  1 14  4  0
  1  2  1  0
  3  4  4  0
  4  5  4  0
  5  6  4  0
  5 22  1  0
  6  7  1  0
  6 14  4  0
  7  8  1  0
  8  9  4  0
  8 12  4  0
  9 10  4  0
 10 11  4  0
 11 12  4  0
 12 13  1  0
 13 14  1  0
 13 15  1  6
 15 16  4  0
 15 20  4  0
 16 17  4  0
 17 18  4  0
 17 21  1  0
 18 19  4  0
 19 20  4  0
 23 24  1  0
 23 25  4  0
 25 26  4  0
 26 27  4  0
 27 28  4  0
 28 29  4  0
 29 30  1  0
 29 31  4  0
 31 32  4  0
 32 26  4  0
  2 23  4  0
  2 32  4  0
M  END
$$$$

     RDKit          3D

 32 37  0  0  0  0  0  0  0  0999 V2000
   -7.6410    4.9930    6.8080 C   0  0  0  0  0  0  0  0  0  1  0  0
   -7.7310    4.0530    5.7140 C   0  0  0  0  0  0  0  0  0  2  0  0
   -6.4520    5.6300    6.8680 N   0  0  0  0  0  0  0  0  0  0  0  0
   -6.2260    6.5240    7.8670 N   0  0  0  0  0  0  0  0  0  0  0  0
   -7.1930    6.7500    8.7820 C   0  0  0  0  0  0  0  0  0  0  0  0
   -8.4240    6.1170    8.7580 C   0  0  0  0  0  0  0  0  0  0  0  0
   -9.3950    6.3570    9.7450 N   0  0  0  0  0  0  0  0  0  0  0  0
  -10.5620    5.6840    9.7600 C   0  0  0  0  0  0  0  0  0  0  0  0
  -11.5770    5.6820   10.5960 N   0  0  0  0  0  0  0  0  0  0  0  0
  -12.4690    4.7490   10.1080 N   0  0  0  0  0  0  0  0  0  0  0  0
  -12.0160    4.1880    8.9920 N   0  0  0  0  0  0  0  0  0  0  0  0
  -10.8400    4.7900    8.7610 N   0  0  0  0  0  0  0  0  0  0  0  0
   -9.9950    4.4790    7.6090 C   0  0  0  0  0  0  0  0  0  0  0  0
   -8.6630    5.2070    7.7200 C   0  0  0  0  0  0  0  0  0  0  0  0
  -10.7490    4.8610    6.3730 C   0  0  0  0  0  0  0  0  0  0  0  0
  -11.0350    6.2020    6.1170 C   0  0  0  0  0  0  0  0  0  0  0  0
  -11.7370    6.5580    4.9650 C   0  0  0  0  0  0  0  0  0  0  0  0
  -12.1550    5.5730    4.0710 C   0  0  0  0  0  0  0  0  0  0  0  0
  -11.8700    4.2310    4.3270 C   0  0  0  0  0  0  0  0  0  0  0  0
  -11.1660    3.8760    5.4790 C   0  0  0  0  0  0  0  0  0  0  0  0
  -12.0160    7.8660    4.7150 O   0  0  0  0  0  0  0  0  0  0  0  0
   -6.8990    7.6510    9.7710 O   0  0  0  0  0  0  0  0  0  0  0  0
   -6.8084    3.1827    5.1308 C   0  0  0  0  0  0  0  0  0  0  0  0
   -5.3639    3.1414    5.5207 C   0  0  0  0  0  0  0  0  0  0  0  0
   -7.3342    2.4089    4.1534 N   0  0  0  0  0  0  0  0  0  0  0  0
   -8.6362    2.7329    4.0862 C   0  0  0  0  0  0  0  0  0  0  0  0
   -9.5838    2.2146    3.2048 C   0  0  0  0  0  0  0  0  0  0  0  0
  -10.8921    2.7240    3.2696 C   0  0  0  0  0  0  0  0  0  0  0  0
  -11.2189    3.7392    4.1944 C   0  0  0  0  0  0  0  0  0  0  0  0
  -12.4795    4.2366    4.2311 F   0  0  0  0  0  0  0  0  0  0  0  0
  -10.2416    4.2473    5.0697 C   0  0  0  0  0  0  0  0  0  0  0  0
   -8.9545    3.7056    5.0033 C   0  0  0  0  0  0  0  0  0  0  0  0
  1  3  4  0
  1 14  4  0
  1  2  1  0
  3  4  4  0
  4  5  4  0
  5  6  4  0
  5 22  1  0
  6  7  1  0
  6 14  4  0
  7  8  1  0
  8  9  4  0
  8 12  4  0
  9 10  4  0
 10 11  4  0
 11 12  4  0
 12 13  1  0
 13 14  1  0
 13 15  1  6
 15 16  4  0
 15 20  4  0
 16 17  4  0
 17 18  4  0
 17 21  1  0
 18 19  4  0
 19 20  4  0
 23 24  1  0
 23 25  4  0
 25 26  4  0
 26 27  4  0
 27 28  4  0
 28 29  4  0
 29 30  1  0
 29 31  4  0
 31 32  4  0
 32 26  4  0
  2 23  4  0
  2 32  4  0
M  END
$$$$

     RDKit          3D

 48 55  0  0  0  0  0  0  0  0999 V2000
   -7.6410    4.9930    6.8080 C   0  0  0  0  0  0  0  0  0  1  0  0
   -7.7310    4.0530    5.7140 C   0  0  0  0  0  0  0  0  0  2  0  0
   -6.4520    5.6300    6.8680 N   0  0  0  0  0  0  0  0  0  0  0  0
   -6.2260    6.5240    7.8670 N   0  0  0  0  0  0  0  0  0  0  0  0
   -7.1930    6.7500    8.7820 C   0  0  0  0  0  0  0  0  0  0  0  0
   -8.4240    6.1170    8.7580 C   0  0  0  0  0  0  0  0  0  0  0  0
   -9.3950    6.3570    9.7450 N   0  0  0  0  0  0  0  0  0  0  0  0
  -10.5620    5.6840    9.7600 C   0  0  0  0  0  0  0  0  0  0  0  0
  -11.5770    5.6820   10.5960 N   0  0  0  0  0  0  0  0  0  0  0  0
  -12.4690    4.7490   10.1080 N   0  0  0  0  0  0  0  0  0  0  0  0
  -12.0160    4.1880    8.9920 N   0  0  0  0  0  0  0  0  0  0  0  0
  -10.8400    4.7900    8.7610 N   0  0  0  0  0  0  0  0  0  0  0  0
   -9.9950    4.4790    7.6090 C   0  0  0  0  0  0  0  0  0  0  0  0
   -8.6630    5.2070    7.7200 C   0  0  0  0  0  0  0  0  0  0  0  0
  -10.7490    4.8610    6.3730 C   0  0  0  0  0  0  0  0  0  0  0  0
  -11.0350    6.2020    6.1170 C   0  0  0  0  0  0  0  0  0  0  0  0
  -11.7370    6.5580    4.9650 C   0  0  0  0  0  0  0  0  0  0  0  0
  -12.1550    5.5730    4.0710 C   0  0  0  0  0  0  0  0  0  0  0  0
  -11.8700    4.2310    4.3270 C   0  0  0  0  0  0  0  0  0  0  0  0
  -11.1660    3.8760    5.4790 C   0  0  0  0  0  0  0  0  0  0  0  0
  -12.0160    7.8660    4.7150 O   0  0  0  0  0  0  0  0  0  0  0  0
   -6.8990    7.6510    9.7710 O   0  0  0  0  0  0  0  0  0  0  0  0
   -6.7879    3.1277    5.3832 N   0  0  0  0  0  0  0  0  0  0  0  0
   -7.1180    2.3276    4.3459 C   0  0  0  0  0  0  0  0  0  0  0  0
   -6.2657    1.3048    3.8144 N   0  0  0  0  0  0  0  0  0  0  0  0
   -4.9837    0.9658    4.3682 C   0  0  0  0  0  0  0  0  0  0  0  0
   -4.4442    1.7087    5.2328 O   0  0  0  0  0  0  0  0  0  0  0  0
   -4.2364   -0.2055    3.8694 C   0  0  0  0  0  0  0  0  0  0  0  0
   -2.9341   -0.0218    3.5306 N   0  0  0  0  0  0  0  0  0  0  0  0
   -2.1675   -0.9929    3.0299 N   0  0  0  0  0  0  0  0  0  0  0  0
   -0.7669   -0.6775    2.7307 C   0  0  0  0  0  0  0  0  0  0  0  0
    0.0882   -0.9268    3.9433 C   0  0  0  0  0  0  0  0  0  0  0  0
    0.8725   -2.0912    4.0392 C   0  0  0  0  0  0  0  0  0  0  0  0
    1.6563   -2.3194    5.1736 C   0  0  0  0  0  0  0  0  0  0  0  0
    1.6648   -1.3888    6.2172 C   0  0  0  0  0  0  0  0  0  0  0  0
    0.8908   -0.2284    6.1285 C   0  0  0  0  0  0  0  0  0  0  0  0
    0.0994    0.0012    4.9991 C   0  0  0  0  0  0  0  0  0  0  0  0
   -2.6693   -2.2533    2.8481 C   0  0  0  0  0  0  0  0  0  0  0  0
   -1.9316   -3.1709    2.3884 O   0  0  0  0  0  0  0  0  0  0  0  0
   -4.0071   -2.5257    3.1874 C   0  0  0  0  0  0  0  0  0  0  0  0
   -4.5537   -3.8145    3.0224 C   0  0  0  0  0  0  0  0  0  0  0  0
   -5.8677   -4.0796    3.4082 C   0  0  0  0  0  0  0  0  0  0  0  0
   -6.6478   -3.0722    3.9751 C   0  0  0  0  0  0  0  0  0  0  0  0
   -6.1211   -1.7904    4.1503 C   0  0  0  0  0  0  0  0  0  0  0  0
   -4.8078   -1.4899    3.7272 C   0  0  0  0  0  0  0  0  0  0  0  0
   -8.6515    2.6713    3.7521 S   0  0  0  0  0  0  0  0  0  0  0  0
   -8.9134    3.9078    4.8637 C   0  0  0  0  0  0  0  0  0  0  0  0
  -10.1510    4.7492    4.9051 C   0  0  0  0  0  0  0  0  0  0  0  0
  1  3  4  0
  1 14  4  0
  1  2  1  0
  3  4  4  0
  4  5  4  0
  5  6  4  0
  5 22  1  0
  6  7  1  0
  6 14  4  0
  7  8  1  0
  8  9  4  0
  8 12  4  0
  9 10  4  0
 10 11  4  0
 11 12  4  0
 12 13  1  0
 13 14  1  0
 13 15  1  6
 15 16  4  0
 15 20  4  0
 16 17  4  0
 17 18  4  0
 17 21  1  0
 18 19  4  0
 19 20  4  0
 23 24  4  0
 24 25  1  0
 25 26  1  0
 26 27  2  0
 26 28  1  0
 28 29  4  0
 29 30  4  0
 30 31  1  0
 31 32  1  0
 32 33  4  0
 33 34  4  0
 34 35  4  0
 35 36  4  0
 36 37  4  0
 30 38  4  0
 38 39  2  0
 38 40  4  0
 40 41  4  0
 41 42  4  0
 42 43  4  0
 43 44  4  0
 44 45  4  0
 24 46  4  0
 46 47  4  0
 47 48  1  0
 45 28  4  0
 37 32  4  0
 45 40  4  0
  2 23  4  0
  2 47  4  0
M  END
$$$$

     RDKit          3D

 48 55  0  0  0  0  0  0  0  0999 V2000
   -7.6410    4.9930    6.8080 C   0  0  0  0  0  0  0  0  0  1  0  0
   -7.7310    4.0530    5.7140 C   0  0  0  0  0  0  0  0  0  2  0  0
   -6.4520    5.6300    6.8680 N   0  0  0  0  0  0  0  0  0  0  0  0
   -6.2260    6.5240    7.8670 N   0  0  0  0  0  0  0  0  0  0  0  0
   -7.1930    6.7500    8.7820 C   0  0  0  0  0  0  0  0  0  0  0  0
   -8.4240    6.1170    8.7580 C   0  0  0  0  0  0  0  0  0  0  0  0
   -9.3950    6.3570    9.7450 N   0  0  0  0  0  0  0  0  0  0  0  0
  -10.5620    5.6840    9.7600 C   0  0  0  0  0  0  0  0  0  0  0  0
  -11.5770    5.6820   10.5960 N   0  0  0  0  0  0  0  0  0  0  0  0
  -12.4690    4.7490   10.1080 N   0  0  0  0  0  0  0  0  0  0  0  0
  -12.0160    4.1880    8.9920 N   0  0  0  0  0  0  0  0  0  0  0  0
  -10.8400    4.7900    8.7610 N   0  0  0  0  0  0  0  0  0  0  0  0
   -9.9950    4.4790    7.6090 C   0  0  0  0  0  0  0  0  0  0  0  0
   -8.6630    5.2070    7.7200 C   0  0  0  0  0  0  0  0  0  0  0  0
  -10.7490    4.8610    6.3730 C   0  0  0  0  0  0  0  0  0  0  0  0
  -11.0350    6.2020    6.1170 C   0  0  0  0  0  0  0  0  0  0  0  0
  -11.7370    6.5580    4.9650 C   0  0  0  0  0  0  0  0  0  0  0  0
  -12.1550    5.5730    4.0710 C   0  0  0  0  0  0  0  0  0  0  0  0
  -11.8700    4.2310    4.3270 C   0  0  0  0  0  0  0  0  0  0  0  0
  -11.1660    3.8760    5.4790 C   0  0  0  0  0  0  0  0  0  0  0  0
  -12.0160    7.8660    4.7150 O   0  0  0  0  0  0  0  0  0  0  0  0
   -6.8990    7.6510    9.7710 O   0  0  0  0  0  0  0  0  0  0  0  0
   -6.7708    3.1555    5.3623 N   0  0  0  0  0  0  0  0  0  0  0  0
   -7.0885    2.3560    4.3227 C   0  0  0  0  0  0  0  0  0  0  0  0
   -6.1923    1.3549    3.8192 N   0  0  0  0  0  0  0  0  0  0  0  0
   -6.2937    0.7600    2.5158 C   0  0  0  0  0  0  0  0  0  0  0  0
   -5.8434   -0.4019    2.3374 O   0  0  0  0  0  0  0  0  0  0  0  0
   -6.9267    1.4603    1.3796 C   0  0  0  0  0  0  0  0  0  0  0  0
   -7.9058    0.8056    0.7071 N   0  0  0  0  0  0  0  0  0  0  0  0
   -8.6224    1.3668   -0.2696 N   0  0  0  0  0  0  0  0  0  0  0  0
   -9.6602    0.5513   -0.9203 C   0  0  0  0  0  0  0  0  0  0  0  0
  -10.4975   -0.1700    0.1068 C   0  0  0  0  0  0  0  0  0  0  0  0
  -10.5646   -1.5728    0.1160 C   0  0  0  0  0  0  0  0  0  0  0  0
  -11.3381   -2.2347    1.0761 C   0  0  0  0  0  0  0  0  0  0  0  0
  -12.0417   -1.5029    2.0346 C   0  0  0  0  0  0  0  0  0  0  0  0
  -11.9778   -0.1076    2.0342 C   0  0  0  0  0  0  0  0  0  0  0  0
  -11.2122    0.5587    1.0718 C   0  0  0  0  0  0  0  0  0  0  0  0
   -8.3600    2.6511   -0.6704 C   0  0  0  0  0  0  0  0  0  0  0  0
   -9.0190    3.1722   -1.6132 O   0  0  0  0  0  0  0  0  0  0  0  0
   -7.3432    3.3861   -0.0360 C   0  0  0  0  0  0  0  0  0  0  0  0
   -7.0476    4.7073   -0.4207 C   0  0  0  0  0  0  0  0  0  0  0  0
   -6.0189    5.4101    0.2061 C   0  0  0  0  0  0  0  0  0  0  0  0
   -5.2664    4.8035    1.2101 C   0  0  0  0  0  0  0  0  0  0  0  0
   -5.5447    3.4946    1.6032 C   0  0  0  0  0  0  0  0  0  0  0  0
   -6.5993    2.7786    1.0024 C   0  0  0  0  0  0  0  0  0  0  0  0
   -8.6511    2.6528    3.7664 S   0  0  0  0  0  0  0  0  0  0  0  0
   -8.9233    3.8824    4.8820 C   0  0  0  0  0  0  0  0  0  0  0  0
  -10.1789    4.6923    4.9428 C   0  0  0  0  0  0  0  0  0  0  0  0
  1  3  4  0
  1 14  4  0
  1  2  1  0
  3  4  4  0
  4  5  4  0
  5  6  4  0
  5 22  1  0
  6  7  1  0
  6 14  4  0
  7  8  1  0
  8  9  4  0
  8 12  4  0
  9 10  4  0
 10 11  4  0
 11 12  4  0
 12 13  1  0
 13 14  1  0
 13 15  1  6
 15 16  4  0
 15 20  4  0
 16 17  4  0
 17 18  4  0
 17 21  1  0
 18 19  4  0
 19 20  4  0
 23 24  4  0
 24 25  1  0
 25 26  1  0
 26 27  2  0
 26 28  1  0
 28 29  4  0
 29 30  4  0
 30 31  1  0
 31 32  1  0
 32 33  4  0
 33 34  4  0
 34 35  4  0
 35 36  4  0
 36 37  4  0
 30 38  4  0
 38 39  2  0
 38 40  4  0
 40 41  4  0
 41 42  4  0
 42 43  4  0
 43 44  4  0
 44 45  4  0
 24 46  4  0
 46 47  4  0
 47 48  1  0
 45 28  4  0
 37 32  4  0
 45 40  4  0
  2 23  4  0
  2 47  4  0
M  END
$$$$

     RDKit          3D

 48 55  0  0  0  0  0  0  0  0999 V2000
   -7.6410    4.9930    6.8080 C   0  0  0  0  0  0  0  0  0  1  0  0
   -7.7310    4.0530    5.7140 C   0  0  0  0  0  0  0  0  0  2  0  0
   -6.4520    5.6300    6.8680 N   0  0  0  0  0  0  0  0  0  0  0  0
   -6.2260    6.5240    7.8670 N   0  0  0  0  0  0  0  0  0  0  0  0
   -7.1930    6.7500    8.7820 C   0  0  0  0  0  0  0  0  0  0  0  0
   -8.4240    6.1170    8.7580 C   0  0  0  0  0  0  0  0  0  0  0  0
   -9.3950    6.3570    9.7450 N   0  0  0  0  0  0  0  0  0  0  0  0
  -10.5620    5.6840    9.7600 C   0  0  0  0  0  0  0  0  0  0  0  0
  -11.5770    5.6820   10.5960 N   0  0  0  0  0  0  0  0  0  0  0  0
  -12.4690    4.7490   10.1080 N   0  0  0  0  0  0  0  0  0  0  0  0
  -12.0160    4.1880    8.9920 N   0  0  0  0  0  0  0  0  0  0  0  0
  -10.8400    4.7900    8.7610 N   0  0  0  0  0  0  0  0  0  0  0  0
   -9.9950    4.4790    7.6090 C   0  0  0  0  0  0  0  0  0  0  0  0
   -8.6630    5.2070    7.7200 C   0  0  0  0  0  0  0  0  0  0  0  0
  -10.7490    4.8610    6.3730 C   0  0  0  0  0  0  0  0  0  0  0  0
  -11.0350    6.2020    6.1170 C   0  0  0  0  0  0  0  0  0  0  0  0
  -11.7370    6.5580    4.9650 C   0  0  0  0  0  0  0  0  0  0  0  0
  -12.1550    5.5730    4.0710 C   0  0  0  0  0  0  0  0  0  0  0  0
  -11.8700    4.2310    4.3270 C   0  0  0  0  0  0  0  0  0  0  0  0
  -11.1660    3.8760    5.4790 C   0  0  0  0  0  0  0  0  0  0  0  0
  -12.0160    7.8660    4.7150 O   0  0  0  0  0  0  0  0  0  0  0  0
   -6.8990    7.6510    9.7710 O   0  0  0  0  0  0  0  0  0  0  0  0
   -6.7973    3.1126    5.4049 N   0  0  0  0  0  0  0  0  0  0  0  0
   -7.1152    2.3182    4.3590 C   0  0  0  0  0  0  0  0  0  0  0  0
   -6.2718    1.2436    3.9226 N   0  0  0  0  0  0  0  0  0  0  0  0
   -6.4289    0.5591    2.6684 C   0  0  0  0  0  0  0  0  0  0  0  0
   -7.0166    1.1391    1.7212 O   0  0  0  0  0  0  0  0  0  0  0  0
   -5.7865   -0.7675    2.4606 C   0  0  0  0  0  0  0  0  0  0  0  0
   -4.7315   -1.0703    3.2612 N   0  0  0  0  0  0  0  0  0  0  0  0
   -4.0176   -2.1905    3.1502 N   0  0  0  0  0  0  0  0  0  0  0  0
   -2.8980   -2.3898    4.0775 C   0  0  0  0  0  0  0  0  0  0  0  0
   -1.5581   -2.0889    3.4457 C   0  0  0  0  0  0  0  0  0  0  0  0
   -0.3912   -2.5676    4.0699 C   0  0  0  0  0  0  0  0  0  0  0  0
    0.8691   -2.2817    3.5326 C   0  0  0  0  0  0  0  0  0  0  0  0
    0.9771   -1.5071    2.3744 C   0  0  0  0  0  0  0  0  0  0  0  0
   -0.1741   -1.0131    1.7515 C   0  0  0  0  0  0  0  0  0  0  0  0
   -1.4357   -1.2947    2.2851 C   0  0  0  0  0  0  0  0  0  0  0  0
   -4.3069   -3.1066    2.1788 C   0  0  0  0  0  0  0  0  0  0  0  0
   -3.5992   -4.1498    2.0579 O   0  0  0  0  0  0  0  0  0  0  0  0
   -5.3959   -2.8846    1.3192 C   0  0  0  0  0  0  0  0  0  0  0  0
   -5.7337   -3.8218    0.3228 C   0  0  0  0  0  0  0  0  0  0  0  0
   -6.8396   -3.6124   -0.4994 C   0  0  0  0  0  0  0  0  0  0  0  0
   -7.6323   -2.4835   -0.3289 C   0  0  0  0  0  0  0  0  0  0  0  0
   -7.3165   -1.5438    0.6533 C   0  0  0  0  0  0  0  0  0  0  0  0
   -6.1748   -1.7077    1.4715 C   0  0  0  0  0  0  0  0  0  0  0  0
   -8.6432    2.6761    3.7502 S   0  0  0  0  0  0  0  0  0  0  0  0
   -8.8985    3.9289    4.8440 C   0  0  0  0  0  0  0  0  0  0  0  0
  -10.1412    4.7561    4.8957 C   0  0  0  0  0  0  0  0  0  0  0  0
  1  3  4  0
  1 14  4  0
  1  2  1  0
  3  4  4  0
  4  5  4  0
  5  6  4  0
  5 22  1  0
  6  7  1  0
  6 14  4  0
  7  8  1  0
  8  9  4  0
  8 12  4  0
  9 10  4  0
 10 11  4  0
 11 12  4  0
 12 13  1  0
 13 14  1  0
 13 15  1  6
 15 16  4  0
 15 20  4  0
 16 17  4  0
 17 18  4  0
 17 21  1  0
 18 19  4  0
 19 20  4  0
 23 24  4  0
 24 25  1  0
 25 26  1  0
 26 27  2  0
 26 28  1  0
 28 29  4  0
 29 30  4  0
 30 31  1  0
 31 32  1  0
 32 33  4  0
 33 34  4  0
 34 35  4  0
 35 36  4  0
 36 37  4  0
 30 38  4  0
 38 39  2  0
 38 40  4  0
 40 41  4  0
 41 42  4  0
 42 43  4  0
 43 44  4  0
 44 45  4  0
 24 46  4  0
 46 47  4  0
 47 48  1  0
 45 28  4  0
 37 32  4  0
 45 40  4  0
  2 23  4  0
  2 47  4  0
M  END
$$$$

     RDKit          3D

 33 38  0  0  0  0  0  0  0  0999 V2000
   -7.6410    4.9930    6.8080 C   0  0  0  0  0  0  0  0  0  1  0  0
   -7.7310    4.0530    5.7140 C   0  0  0  0  0  0  0  0  0  2  0  0
   -6.4520    5.6300    6.8680 N   0  0  0  0  0  0  0  0  0  0  0  0
   -6.2260    6.5240    7.8670 N   0  0  0  0  0  0  0  0  0  0  0  0
   -7.1930    6.7500    8.7820 C   0  0  0  0  0  0  0  0  0  0  0  0
   -8.4240    6.1170    8.7580 C   0  0  0  0  0  0  0  0  0  0  0  0
   -9.3950    6.3570    9.7450 N   0  0  0  0  0  0  0  0  0  0  0  0
  -10.5620    5.6840    9.7600 C   0  0  0  0  0  0  0  0  0  0  0  0
  -11.5770    5.6820   10.5960 N   0  0  0  0  0  0  0  0  0  0  0  0
  -12.4690    4.7490   10.1080 N   0  0  0  0  0  0  0  0  0  0  0  0
  -12.0160    4.1880    8.9920 N   0  0  0  0  0  0  0  0  0  0  0  0
  -10.8400    4.7900    8.7610 N   0  0  0  0  0  0  0  0  0  0  0  0
   -9.9950    4.4790    7.6090 C   0  0  0  0  0  0  0  0  0  0  0  0
   -8.6630    5.2070    7.7200 C   0  0  0  0  0  0  0  0  0  0  0  0
  -10.7490    4.8610    6.3730 C   0  0  0  0  0  0  0  0  0  0  0  0
  -11.0350    6.2020    6.1170 C   0  0  0  0  0  0  0  0  0  0  0  0
  -11.7370    6.5580    4.9650 C   0  0  0  0  0  0  0  0  0  0  0  0
  -12.1550    5.5730    4.0710 C   0  0  0  0  0  0  0  0  0  0  0  0
  -11.8700    4.2310    4.3270 C   0  0  0  0  0  0  0  0  0  0  0  0
  -11.1660    3.8760    5.4790 C   0  0  0  0  0  0  0  0  0  0  0  0
  -12.0160    7.8660    4.7150 O   0  0  0  0  0  0  0  0  0  0  0  0
   -6.8990    7.6510    9.7710 O   0  0  0  0  0  0  0  0  0  0  0  0
   -6.8581    3.0575    5.4319 N   0  0  0  0  0  0  0  0  0  0  0  0
   -7.3425    2.3997    4.3603 C   0  0  0  0  0  0  0  0  0  0  0  0
   -8.5376    2.9618    3.9760 C   0  0  0  0  0  0  0  0  0  0  0  0
   -8.8213    3.9707    4.8184 N   0  0  0  0  0  0  0  0  0  0  0  0
   -9.9013    4.9424    4.6295 C   0  0  0  0  0  0  0  0  0  0  0  0
   -9.4768    6.0039    3.6639 C   0  0  0  0  0  0  0  0  0  0  0  0
   -8.5429    7.0042    3.9113 C   0  0  0  0  0  0  0  0  0  0  0  0
   -8.3355    7.8473    2.8138 C   0  0  0  0  0  0  0  0  0  0  0  0
   -9.1056    7.5050    1.7118 C   0  0  0  0  0  0  0  0  0  0  0  0
   -9.1064    8.3334    0.1693 Cl  0  0  0  0  0  0  0  0  0  0  0  0
  -10.0440    6.1625    2.0871 S   0  0  0  0  0  0  0  0  0  0  0  0
  1  3  4  0
  1 14  4  0
  1  2  1  0
  3  4  4  0
  4  5  4  0
  5  6  4  0
  5 22  1  0
  6  7  1  0
  6 14  4  0
  7  8  1  0
  8  9  4  0
  8 12  4  0
  9 10  4  0
 10 11  4  0
 11 12  4  0
 12 13  1  0
 13 14  1  0
 13 15  1  6
 15 16  4  0
 15 20  4  0
 16 17  4  0
 17 18  4  0
 17 21  1  0
 18 19  4  0
 19 20  4  0
 23 24  4  0
 24 25  4  0
 25 26  4  0
 26 27  1  0
 27 28  1  0
 28 29  4  0
 29 30  4  0
 30 31  4  0
 31 32  1  0
 31 33  4  0
 33 28  4  0
  2 23  4  0
  2 26  4  0
M  END
$$$$

     RDKit          3D

 40 46  0  0  0  0  0  0  0  0999 V2000
   -7.6410    4.9930    6.8080 C   0  0  0  0  0  0  0  0  0  1  0  0
   -7.7310    4.0530    5.7140 C   0  0  0  0  0  0  0  0  0  2  0  0
   -6.4520    5.6300    6.8680 N   0  0  0  0  0  0  0  0  0  0  0  0
   -6.2260    6.5240    7.8670 N   0  0  0  0  0  0  0  0  0  0  0  0
   -7.1930    6.7500    8.7820 C   0  0  0  0  0  0  0  0  0  0  0  0
   -8.4240    6.1170    8.7580 C   0  0  0  0  0  0  0  0  0  0  0  0
   -9.3950    6.3570    9.7450 N   0  0  0  0  0  0  0  0  0  0  0  0
  -10.5620    5.6840    9.7600 C   0  0  0  0  0  0  0  0  0  0  0  0
  -11.5770    5.6820   10.5960 N   0  0  0  0  0  0  0  0  0  0  0  0
  -12.4690    4.7490   10.1080 N   0  0  0  0  0  0  0  0  0  0  0  0
  -12.0160    4.1880    8.9920 N   0  0  0  0  0  0  0  0  0  0  0  0
  -10.8400    4.7900    8.7610 N   0  0  0  0  0  0  0  0  0  0  0  0
   -9.9950    4.4790    7.6090 C   0  0  0  0  0  0  0  0  0  0  0  0
   -8.6630    5.2070    7.7200 C   0  0  0  0  0  0  0  0  0  0  0  0
  -10.7490    4.8610    6.3730 C   0  0  0  0  0  0  0  0  0  0  0  0
  -11.0350    6.2020    6.1170 C   0  0  0  0  0  0  0  0  0  0  0  0
  -11.7370    6.5580    4.9650 C   0  0  0  0  0  0  0  0  0  0  0  0
  -12.1550    5.5730    4.0710 C   0  0  0  0  0  0  0  0  0  0  0  0
  -11.8700    4.2310    4.3270 C   0  0  0  0  0  0  0  0  0  0  0  0
  -11.1660    3.8760    5.4790 C   0  0  0  0  0  0  0  0  0  0  0  0
  -12.0160    7.8660    4.7150 O   0  0  0  0  0  0  0  0  0  0  0  0
   -6.8990    7.6510    9.7710 O   0  0  0  0  0  0  0  0  0  0  0  0
   -6.9062    2.9397    5.4382 C   0  0  0  0  0  0  0  0  0  0  0  0
   -7.4193    2.0940    4.0352 S   0  0  0  0  0  0  0  0  0  0  0  0
   -8.7369    3.1135    3.8571 C   0  0  0  0  0  0  0  0  0  0  0  0
   -9.6279    3.2844    2.8682 N   0  0  0  0  0  0  0  0  0  0  0  0
  -10.2920    4.3960    3.1959 N   0  0  0  0  0  0  0  0  0  0  0  0
   -9.7699    4.8623    4.3580 C   0  0  0  0  0  0  0  0  0  0  0  0
  -10.2158    6.4374    5.0945 S   0  0  0  0  0  0  0  0  0  0  0  0
   -8.8570    7.3656    4.2934 C   0  0  0  0  0  0  0  0  0  0  0  0
   -9.1838    7.6254    2.8463 C   0  0  0  0  0  0  0  0  0  0  0  0
  -10.0042    8.5528    2.5714 O   0  0  0  0  0  0  0  0  0  0  0  0
   -8.5918    6.8529    1.7774 N   0  0  0  0  0  0  0  0  0  0  0  0
   -9.2396    6.8350    0.4596 C   0  0  0  0  0  0  0  0  0  0  0  0
   -9.0951    5.4552   -0.1963 C   0  0  0  0  0  0  0  0  0  0  0  0
   -7.6505    4.8799   -0.1329 C   0  0  0  0  0  0  0  0  0  0  0  0
   -7.1278    4.5505   -1.5368 C   0  0  0  0  0  0  0  0  0  0  0  0
   -6.6682    5.8119    0.6005 C   0  0  0  0  0  0  0  0  0  0  0  0
   -7.2520    6.2609    1.9420 C   0  0  0  0  0  0  0  0  0  0  0  0
   -8.7877    4.0508    4.7773 N   0  0  0  0  0  0  0  0  0  0  0  0
  1  3  4  0
  1 14  4  0
  1  2  1  0
  3  4  4  0
  4  5  4  0
  5  6  4  0
  5 22  1  0
  6  7  1  0
  6 14  4  0
  7  8  1  0
  8  9  4  0
  8 12  4  0
  9 10  4  0
 10 11  4  0
 11 12  4  0
 12 13  1  0
 13 14  1  0
 13 15  1  6
 15 16  4  0
 15 20  4  0
 16 17  4  0
 17 18  4  0
 17 21  1  0
 18 19  4  0
 19 20  4  0
 23 24  4  0
 24 25  4  0
 25 26  4  0
 26 27  4  0
 27 28  4  0
 28 29  1  0
 29 30  1  0
 30 31  1  0
 31 32  2  0
 31 33  1  0
 33 34  1  0
 34 35  1  0
 35 36  1  0
 36 37  1  0
 36 38  1  0
 38 39  1  0
 28 40  4  0
 40 25  4  0
 39 33  1  0
  2 23  4  0
  2 40  4  0
M  END
$$$$

     RDKit          3D

 45 51  0  0  0  0  0  0  0  0999 V2000
   -7.6410    4.9930    6.8080 C   0  0  0  0  0  0  0  0  0  1  0  0
   -7.7310    4.0530    5.7140 C   0  0  0  0  0  0  0  0  0  2  0  0
   -6.4520    5.6300    6.8680 N   0  0  0  0  0  0  0  0  0  0  0  0
   -6.2260    6.5240    7.8670 N   0  0  0  0  0  0  0  0  0  0  0  0
   -7.1930    6.7500    8.7820 C   0  0  0  0  0  0  0  0  0  0  0  0
   -8.4240    6.1170    8.7580 C   0  0  0  0  0  0  0  0  0  0  0  0
   -9.3950    6.3570    9.7450 N   0  0  0  0  0  0  0  0  0  0  0  0
  -10.5620    5.6840    9.7600 C   0  0  0  0  0  0  0  0  0  0  0  0
  -11.5770    5.6820   10.5960 N   0  0  0  0  0  0  0  0  0  0  0  0
  -12.4690    4.7490   10.1080 N   0  0  0  0  0  0  0  0  0  0  0  0
  -12.0160    4.1880    8.9920 N   0  0  0  0  0  0  0  0  0  0  0  0
  -10.8400    4.7900    8.7610 N   0  0  0  0  0  0  0  0  0  0  0  0
   -9.9950    4.4790    7.6090 C   0  0  0  0  0  0  0  0  0  0  0  0
   -8.6630    5.2070    7.7200 C   0  0  0  0  0  0  0  0  0  0  0  0
  -10.7490    4.8610    6.3730 C   0  0  0  0  0  0  0  0  0  0  0  0
  -11.0350    6.2020    6.1170 C   0  0  0  0  0  0  0  0  0  0  0  0
  -11.7370    6.5580    4.9650 C   0  0  0  0  0  0  0  0  0  0  0  0
  -12.1550    5.5730    4.0710 C   0  0  0  0  0  0  0  0  0  0  0  0
  -11.8700    4.2310    4.3270 C   0  0  0  0  0  0  0  0  0  0  0  0
  -11.1660    3.8760    5.4790 C   0  0  0  0  0  0  0  0  0  0  0  0
  -12.0160    7.8660    4.7150 O   0  0  0  0  0  0  0  0  0  0  0  0
   -6.8990    7.6510    9.7710 O   0  0  0  0  0  0  0  0  0  0  0  0
   -6.7639    3.2548    5.2137 N   0  0  0  0  0  0  0  0  0  0  0  0
   -7.2672    2.5102    4.2403 N   0  0  0  0  0  0  0  0  0  0  0  0
   -8.5683    2.8181    4.1103 C   0  0  0  0  0  0  0  0  0  0  0  0
   -9.5916    2.0436    3.0901 S   0  0  0  0  0  0  0  0  0  0  0  0
   -8.9199    3.7705    4.9963 N   0  0  0  0  0  0  0  0  0  0  0  0
  -10.2075    4.2707    5.2699 N   0  0  0  0  0  0  0  0  0  0  0  0
  -10.9642    4.8822    4.4051 C   0  0  0  0  0  0  0  0  0  0  0  0
  -10.5202    5.2737    3.0512 C   0  0  0  0  0  0  0  0  0  0  0  0
  -11.4149    5.1528    1.9829 C   0  0  0  0  0  0  0  0  0  0  0  0
  -11.0390    5.5431    0.6976 C   0  0  0  0  0  0  0  0  0  0  0  0
   -9.7597    6.0798    0.4586 C   0  0  0  0  0  0  0  0  0  0  0  0
   -9.3777    6.5237   -0.8169 O   0  0  0  0  0  0  0  0  0  0  0  0
  -10.1949    6.4448   -1.9801 C   0  0  0  0  0  0  0  0  0  0  0  0
   -8.8538    6.1993    1.5346 C   0  0  0  0  0  0  0  0  0  0  0  0
   -7.5576    6.7100    1.3699 O   0  0  0  0  0  0  0  0  0  0  0  0
   -6.6151    6.2387    0.4060 C   0  0  0  0  0  0  0  0  0  0  0  0
   -6.1982    4.8257    0.7159 C   0  0  0  0  0  0  0  0  0  0  0  0
   -7.0199    3.7466    0.3468 C   0  0  0  0  0  0  0  0  0  0  0  0
   -6.6270    2.4341    0.6250 C   0  0  0  0  0  0  0  0  0  0  0  0
   -5.4105    2.1886    1.2683 C   0  0  0  0  0  0  0  0  0  0  0  0
   -4.5918    3.2562    1.6503 C   0  0  0  0  0  0  0  0  0  0  0  0
   -4.9833    4.5707    1.3774 C   0  0  0  0  0  0  0  0  0  0  0  0
   -9.2517    5.8278    2.8236 C   0  0  0  0  0  0  0  0  0  0  0  0
  1  3  4  0
  1 14  4  0
  1  2  1  0
  3  4  4  0
  4  5  4  0
  5  6  4  0
  5 22  1  0
  6  7  1  0
  6 14  4  0
  7  8  1  0
  8  9  4  0
  8 12  4  0
  9 10  4  0
 10 11  4  0
 11 12  4  0
 12 13  1  0
 13 14  1  0
 13 15  1  6
 15 16  4  0
 15 20  4  0
 16 17  4  0
 17 18  4  0
 17 21  1  0
 18 19  4  0
 19 20  4  0
 23 24  4  0
 24 25  4  0
 25 26  2  0
 25 27  4  0
 27 28  1  0
 28 29  2  3
 29 30  1  0
 30 31  4  0
 31 32  4  0
 32 33  4  0
 33 34  1  0
 34 35  1  0
 33 36  4  0
 36 37  1  0
 37 38  1  0
 38 39  1  0
 39 40  4  0
 40 41  4  0
 41 42  4  0
 42 43  4  0
 43 44  4  0
 36 45  4  0
 45 30  4  0
 44 39  4  0
  2 23  4  0
  2 27  4  0
M  END
$$$$

     RDKit          3D

 45 51  0  0  0  0  0  0  0  0999 V2000
   -7.6410    4.9930    6.8080 C   0  0  0  0  0  0  0  0  0  1  0  0
   -7.7310    4.0530    5.7140 C   0  0  0  0  0  0  0  0  0  2  0  0
   -6.4520    5.6300    6.8680 N   0  0  0  0  0  0  0  0  0  0  0  0
   -6.2260    6.5240    7.8670 N   0  0  0  0  0  0  0  0  0  0  0  0
   -7.1930    6.7500    8.7820 C   0  0  0  0  0  0  0  0  0  0  0  0
   -8.4240    6.1170    8.7580 C   0  0  0  0  0  0  0  0  0  0  0  0
   -9.3950    6.3570    9.7450 N   0  0  0  0  0  0  0  0  0  0  0  0
  -10.5620    5.6840    9.7600 C   0  0  0  0  0  0  0  0  0  0  0  0
  -11.5770    5.6820   10.5960 N   0  0  0  0  0  0  0  0  0  0  0  0
  -12.4690    4.7490   10.1080 N   0  0  0  0  0  0  0  0  0  0  0  0
  -12.0160    4.1880    8.9920 N   0  0  0  0  0  0  0  0  0  0  0  0
  -10.8400    4.7900    8.7610 N   0  0  0  0  0  0  0  0  0  0  0  0
   -9.9950    4.4790    7.6090 C   0  0  0  0  0  0  0  0  0  0  0  0
   -8.6630    5.2070    7.7200 C   0  0  0  0  0  0  0  0  0  0  0  0
  -10.7490    4.8610    6.3730 C   0  0  0  0  0  0  0  0  0  0  0  0
  -11.0350    6.2020    6.1170 C   0  0  0  0  0  0  0  0  0  0  0  0
  -11.7370    6.5580    4.9650 C   0  0  0  0  0  0  0  0  0  0  0  0
  -12.1550    5.5730    4.0710 C   0  0  0  0  0  0  0  0  0  0  0  0
  -11.8700    4.2310    4.3270 C   0  0  0  0  0  0  0  0  0  0  0  0
  -11.1660    3.8760    5.4790 C   0  0  0  0  0  0  0  0  0  0  0  0
  -12.0160    7.8660    4.7150 O   0  0  0  0  0  0  0  0  0  0  0  0
   -6.8990    7.6510    9.7710 O   0  0  0  0  0  0  0  0  0  0  0  0
   -6.7446    3.3216    5.1490 N   0  0  0  0  0  0  0  0  0  0  0  0
   -7.2474    2.5503    4.1942 N   0  0  0  0  0  0  0  0  0  0  0  0
   -8.5719    2.7683    4.1420 C   0  0  0  0  0  0  0  0  0  0  0  0
   -9.6017    1.9244    3.1868 S   0  0  0  0  0  0  0  0  0  0  0  0
   -8.9367    3.6926    5.0528 N   0  0  0  0  0  0  0  0  0  0  0  0
  -10.2398    4.1291    5.3664 N   0  0  0  0  0  0  0  0  0  0  0  0
  -11.0310    4.7292    4.5242 C   0  0  0  0  0  0  0  0  0  0  0  0
  -10.6122    5.1608    3.1714 C   0  0  0  0  0  0  0  0  0  0  0  0
  -11.4937    5.0037    2.0996 C   0  0  0  0  0  0  0  0  0  0  0  0
  -11.1237    5.4091    0.8154 C   0  0  0  0  0  0  0  0  0  0  0  0
   -9.8680    5.9996    0.5795 C   0  0  0  0  0  0  0  0  0  0  0  0
   -9.4953    6.3965   -0.7117 O   0  0  0  0  0  0  0  0  0  0  0  0
  -10.2498    6.1456   -1.8915 C   0  0  0  0  0  0  0  0  0  0  0  0
   -8.9843    6.1954    1.6720 C   0  0  0  0  0  0  0  0  0  0  0  0
   -7.7152    6.7949    1.5750 O   0  0  0  0  0  0  0  0  0  0  0  0
   -7.0566    7.2721    0.4013 C   0  0  0  0  0  0  0  0  0  0  0  0
   -6.5847    6.1360   -0.4700 C   0  0  0  0  0  0  0  0  0  0  0  0
   -6.0243    4.9765    0.0999 C   0  0  0  0  0  0  0  0  0  0  0  0
   -5.5550    3.9420   -0.7190 C   0  0  0  0  0  0  0  0  0  0  0  0
   -5.6306    4.0639   -2.1101 C   0  0  0  0  0  0  0  0  0  0  0  0
   -6.1714    5.2177   -2.6838 C   0  0  0  0  0  0  0  0  0  0  0  0
   -6.6446    6.2519   -1.8693 C   0  0  0  0  0  0  0  0  0  0  0  0
   -9.3746    5.7818    2.9514 C   0  0  0  0  0  0  0  0  0  0  0  0
  1  3  4  0
  1 14  4  0
  1  2  1  0
  3  4  4  0
  4  5  4  0
  5  6  4  0
  5 22  1  0
  6  7  1  0
  6 14  4  0
  7  8  1  0
  8  9  4  0
  8 12  4  0
  9 10  4  0
 10 11  4  0
 11 12  4  0
 12 13  1  0
 13 14  1  0
 13 15  1  6
 15 16  4  0
 15 20  4  0
 16 17  4  0
 17 18  4  0
 17 21  1  0
 18 19  4  0
 19 20  4  0
 23 24  4  0
 24 25  4  0
 25 26  2  0
 25 27  4  0
 27 28  1  0
 28 29  2  3
 29 30  1  0
 30 31  4  0
 31 32  4  0
 32 33  4  0
 33 34  1  0
 34 35  1  0
 33 36  4  0
 36 37  1  0
 37 38  1  0
 38 39  1  0
 39 40  4  0
 40 41  4  0
 41 42  4  0
 42 43  4  0
 43 44  4  0
 36 45  4  0
 45 30  4  0
 44 39  4  0
  2 23  4  0
  2 27  4  0
M  END
$$$$

     RDKit          3D

 44 50  0  0  0  0  0  0  0  0999 V2000
   -7.6410    4.9930    6.8080 C   0  0  0  0  0  0  0  0  0  1  0  0
   -7.7310    4.0530    5.7140 C   0  0  0  0  0  0  0  0  0  2  0  0
   -6.4520    5.6300    6.8680 N   0  0  0  0  0  0  0  0  0  0  0  0
   -6.2260    6.5240    7.8670 N   0  0  0  0  0  0  0  0  0  0  0  0
   -7.1930    6.7500    8.7820 C   0  0  0  0  0  0  0  0  0  0  0  0
   -8.4240    6.1170    8.7580 C   0  0  0  0  0  0  0  0  0  0  0  0
   -9.3950    6.3570    9.7450 N   0  0  0  0  0  0  0  0  0  0  0  0
  -10.5620    5.6840    9.7600 C   0  0  0  0  0  0  0  0  0  0  0  0
  -11.5770    5.6820   10.5960 N   0  0  0  0  0  0  0  0  0  0  0  0
  -12.4690    4.7490   10.1080 N   0  0  0  0  0  0  0  0  0  0  0  0
  -12.0160    4.1880    8.9920 N   0  0  0  0  0  0  0  0  0  0  0  0
  -10.8400    4.7900    8.7610 N   0  0  0  0  0  0  0  0  0  0  0  0
   -9.9950    4.4790    7.6090 C   0  0  0  0  0  0  0  0  0  0  0  0
   -8.6630    5.2070    7.7200 C   0  0  0  0  0  0  0  0  0  0  0  0
  -10.7490    4.8610    6.3730 C   0  0  0  0  0  0  0  0  0  0  0  0
  -11.0350    6.2020    6.1170 C   0  0  0  0  0  0  0  0  0  0  0  0
  -11.7370    6.5580    4.9650 C   0  0  0  0  0  0  0  0  0  0  0  0
  -12.1550    5.5730    4.0710 C   0  0  0  0  0  0  0  0  0  0  0  0
  -11.8700    4.2310    4.3270 C   0  0  0  0  0  0  0  0  0  0  0  0
  -11.1660    3.8760    5.4790 C   0  0  0  0  0  0  0  0  0  0  0  0
  -12.0160    7.8660    4.7150 O   0  0  0  0  0  0  0  0  0  0  0  0
   -6.8990    7.6510    9.7710 O   0  0  0  0  0  0  0  0  0  0  0  0
   -6.9377    2.9736    5.5159 N   0  0  0  0  0  0  0  0  0  0  0  0
   -7.3731    2.2578    4.4894 N   0  0  0  0  0  0  0  0  0  0  0  0
   -6.7182    1.0585    4.0245 C   0  0  0  0  0  0  0  0  0  0  0  0
   -5.4136    0.7576    4.4595 C   0  0  0  0  0  0  0  0  0  0  0  0
   -4.7690   -0.4040    4.0242 C   0  0  0  0  0  0  0  0  0  0  0  0
   -5.4149   -1.2785    3.1505 C   0  0  0  0  0  0  0  0  0  0  0  0
   -6.7120   -0.9984    2.7171 C   0  0  0  0  0  0  0  0  0  0  0  0
   -7.3643    0.1601    3.1510 C   0  0  0  0  0  0  0  0  0  0  0  0
   -8.4937    2.8222    3.9926 C   0  0  0  0  0  0  0  0  0  0  0  0
   -8.7793    3.9623    4.7226 C   0  0  0  0  0  0  0  0  0  0  0  0
   -9.8730    4.9347    4.4802 C   0  0  0  0  0  0  0  0  0  0  0  0
   -9.9772    5.9493    5.2188 O   0  0  0  0  0  0  0  0  0  0  0  0
  -10.8258    4.7497    3.4196 N   0  0  0  0  0  0  0  0  0  0  0  0
  -12.2427    5.0201    3.6873 C   0  0  0  0  0  0  0  0  0  0  0  0
  -13.1135    4.5776    2.5019 C   0  0  0  0  0  0  0  0  0  0  0  0
  -12.6707    5.1432    1.2037 N   0  0  0  0  0  0  0  0  0  0  0  0
  -13.6462    6.5235    0.7593 S   0  0  0  0  0  0  0  0  0  0  0  0
  -13.1096    7.1880   -0.8043 C   0  0  0  0  0  0  0  0  0  0  0  0
  -13.5446    7.5887    1.8145 O   0  0  0  0  0  0  0  0  0  0  0  0
  -15.0829    6.0997    0.6257 O   0  0  0  0  0  0  0  0  0  0  0  0
  -11.2321    5.4864    1.1308 C   0  0  0  0  0  0  0  0  0  0  0  0
  -10.3825    4.5886    2.0319 C   0  0  0  0  0  0  0  0  0  0  0  0
  1  3  4  0
  1 14  4  0
  1  2  1  0
  3  4  4  0
  4  5  4  0
  5  6  4  0
  5 22  1  0
  6  7  1  0
  6 14  4  0
  7  8  1  0
  8  9  4  0
  8 12  4  0
  9 10  4  0
 10 11  4  0
 11 12  4  0
 12 13  1  0
 13 14  1  0
 13 15  1  6
 15 16  4  0
 15 20  4  0
 16 17  4  0
 17 18  4  0
 17 21  1  0
 18 19  4  0
 19 20  4  0
 23 24  4  0
 24 25  1  0
 25 26  4  0
 26 27  4  0
 27 28  4  0
 28 29  4  0
 29 30  4  0
 24 31  4  0
 31 32  4  0
 32 33  1  0
 33 34  2  0
 33 35  1  0
 35 36  1  0
 36 37  1  0
 37 38  1  0
 38 39  1  0
 39 40  1  0
 39 41  2  0
 39 42  2  0
 38 43  1  0
 43 44  1  0
 44 35  1  0
 30 25  4  0
  2 23  4  0
  2 32  4  0
M  END
$$$$

     RDKit          3D

 32 37  0  0  0  0  0  0  0  0999 V2000
   -7.6410    4.9930    6.8080 C   0  0  0  0  0  0  0  0  0  1  0  0
   -7.7310    4.0530    5.7140 C   0  0  0  0  0  0  0  0  0  2  0  0
   -6.4520    5.6300    6.8680 N   0  0  0  0  0  0  0  0  0  0  0  0
   -6.2260    6.5240    7.8670 N   0  0  0  0  0  0  0  0  0  0  0  0
   -7.1930    6.7500    8.7820 C   0  0  0  0  0  0  0  0  0  0  0  0
   -8.4240    6.1170    8.7580 C   0  0  0  0  0  0  0  0  0  0  0  0
   -9.3950    6.3570    9.7450 N   0  0  0  0  0  0  0  0  0  0  0  0
  -10.5620    5.6840    9.7600 C   0  0  0  0  0  0  0  0  0  0  0  0
  -11.5770    5.6820   10.5960 N   0  0  0  0  0  0  0  0  0  0  0  0
  -12.4690    4.7490   10.1080 N   0  0  0  0  0  0  0  0  0  0  0  0
  -12.0160    4.1880    8.9920 N   0  0  0  0  0  0  0  0  0  0  0  0
  -10.8400    4.7900    8.7610 N   0  0  0  0  0  0  0  0  0  0  0  0
   -9.9950    4.4790    7.6090 C   0  0  0  0  0  0  0  0  0  0  0  0
   -8.6630    5.2070    7.7200 C   0  0  0  0  0  0  0  0  0  0  0  0
  -10.7490    4.8610    6.3730 C   0  0  0  0  0  0  0  0  0  0  0  0
  -11.0350    6.2020    6.1170 C   0  0  0  0  0  0  0  0  0  0  0  0
  -11.7370    6.5580    4.9650 C   0  0  0  0  0  0  0  0  0  0  0  0
  -12.1550    5.5730    4.0710 C   0  0  0  0  0  0  0  0  0  0  0  0
  -11.8700    4.2310    4.3270 C   0  0  0  0  0  0  0  0  0  0  0  0
  -11.1660    3.8760    5.4790 C   0  0  0  0  0  0  0  0  0  0  0  0
  -12.0160    7.8660    4.7150 O   0  0  0  0  0  0  0  0  0  0  0  0
   -6.8990    7.6510    9.7710 O   0  0  0  0  0  0  0  0  0  0  0  0
   -6.8651    3.0736    5.3586 N   0  0  0  0  0  0  0  0  0  0  0  0
   -7.4609    2.3733    4.3770 C   0  0  0  0  0  0  0  0  0  0  0  0
   -6.9403    1.2905    3.6732 C   0  0  0  0  0  0  0  0  0  0  0  0
   -7.7478    0.6994    2.6777 C   0  0  0  0  0  0  0  0  0  0  0  0
   -7.2578   -0.4151    1.9283 N   0  0  0  0  0  0  0  0  0  0  0  0
   -9.0447    1.2115    2.4225 C   0  0  0  0  0  0  0  0  0  0  0  0
   -9.5384    2.3083    3.1529 C   0  0  0  0  0  0  0  0  0  0  0  0
   -8.7084    2.8639    4.1276 C   0  0  0  0  0  0  0  0  0  0  0  0
   -8.9387    3.9057    4.9436 N   0  0  0  0  0  0  0  0  0  0  0  0
  -10.1342    4.7474    4.9818 C   0  0  0  0  0  0  0  0  0  0  0  0
  1  3  4  0
  1 14  4  0
  1  2  1  0
  3  4  4  0
  4  5  4  0
  5  6  4  0
  5 22  1  0
  6  7  1  0
  6 14  4  0
  7  8  1  0
  8  9  4  0
  8 12  4  0
  9 10  4  0
 10 11  4  0
 11 12  4  0
 12 13  1  0
 13 14  1  0
 13 15  1  6
 15 16  4  0
 15 20  4  0
 16 17  4  0
 17 18  4  0
 17 21  1  0
 18 19  4  0
 19 20  4  0
 23 24  4  0
 24 25  4  0
 25 26  4  0
 26 27  1  0
 26 28  4  0
 28 29  4  0
 29 30  4  0
 30 31  4  0
 31 32  1  0
 30 24  4  0
  2 23  4  0
  2 31  4  0
M  END
$$$$

     RDKit          3D

 46 53  0  0  0  0  0  0  0  0999 V2000
   -7.6410    4.9930    6.8080 C   0  0  0  0  0  0  0  0  0  1  0  0
   -7.7310    4.0530    5.7140 C   0  0  0  0  0  0  0  0  0  2  0  0
   -6.4520    5.6300    6.8680 N   0  0  0  0  0  0  0  0  0  0  0  0
   -6.2260    6.5240    7.8670 N   0  0  0  0  0  0  0  0  0  0  0  0
   -7.1930    6.7500    8.7820 C   0  0  0  0  0  0  0  0  0  0  0  0
   -8.4240    6.1170    8.7580 C   0  0  0  0  0  0  0  0  0  0  0  0
   -9.3950    6.3570    9.7450 N   0  0  0  0  0  0  0  0  0  0  0  0
  -10.5620    5.6840    9.7600 C   0  0  0  0  0  0  0  0  0  0  0  0
  -11.5770    5.6820   10.5960 N   0  0  0  0  0  0  0  0  0  0  0  0
  -12.4690    4.7490   10.1080 N   0  0  0  0  0  0  0  0  0  0  0  0
  -12.0160    4.1880    8.9920 N   0  0  0  0  0  0  0  0  0  0  0  0
  -10.8400    4.7900    8.7610 N   0  0  0  0  0  0  0  0  0  0  0  0
   -9.9950    4.4790    7.6090 C   0  0  0  0  0  0  0  0  0  0  0  0
   -8.6630    5.2070    7.7200 C   0  0  0  0  0  0  0  0  0  0  0  0
  -10.7490    4.8610    6.3730 C   0  0  0  0  0  0  0  0  0  0  0  0
  -11.0350    6.2020    6.1170 C   0  0  0  0  0  0  0  0  0  0  0  0
  -11.7370    6.5580    4.9650 C   0  0  0  0  0  0  0  0  0  0  0  0
  -12.1550    5.5730    4.0710 C   0  0  0  0  0  0  0  0  0  0  0  0
  -11.8700    4.2310    4.3270 C   0  0  0  0  0  0  0  0  0  0  0  0
  -11.1660    3.8760    5.4790 C   0  0  0  0  0  0  0  0  0  0  0  0
  -12.0160    7.8660    4.7150 O   0  0  0  0  0  0  0  0  0  0  0  0
   -6.8990    7.6510    9.7710 O   0  0  0  0  0  0  0  0  0  0  0  0
   -7.0069    2.9192    5.5081 N   0  0  0  0  0  0  0  0  0  0  0  0
   -7.4973    2.2367    4.4833 N   0  0  0  0  0  0  0  0  0  0  0  0
   -8.5859    2.9031    4.0549 C   0  0  0  0  0  0  0  0  0  0  0  0
   -9.5948    2.3687    2.6693 S   0  0  0  0  0  0  0  0  0  0  0  0
  -10.8192    1.4801    3.6932 C   0  0  0  0  0  0  0  0  0  0  0  0
  -10.3104    0.0759    4.0638 C   0  0  0  0  0  0  0  0  0  0  0  0
  -11.3196   -0.7056    4.8319 N   0  0  0  0  0  0  0  0  0  0  0  0
  -12.2787   -1.3526    3.8977 C   0  0  0  0  0  0  0  0  0  0  0  0
  -13.5372   -1.8902    4.6025 C   0  0  0  0  0  0  0  0  0  0  0  0
  -13.3085   -3.2764    5.1529 C   0  0  0  0  0  0  0  0  0  0  0  0
  -14.0568   -4.3548    4.6266 C   0  0  0  0  0  0  0  0  0  0  0  0
  -13.8100   -5.6274    5.1206 C   0  0  0  0  0  0  0  0  0  0  0  0
  -14.4039   -6.7780    4.7606 N   0  0  0  0  0  0  0  0  0  0  0  0
  -13.7683   -7.6788    5.5550 C   0  0  0  0  0  0  0  0  0  0  0  0
  -14.0737   -9.1381    5.5445 C   0  0  0  0  0  0  0  0  0  0  0  0
  -12.8557   -7.1364    6.3429 O   0  0  0  0  0  0  0  0  0  0  0  0
  -12.8759   -5.8575    6.0784 C   0  0  0  0  0  0  0  0  0  0  0  0
  -12.1073   -4.8403    6.6356 C   0  0  0  0  0  0  0  0  0  0  0  0
  -10.8022   -5.3097    7.9640 Br  0  0  0  0  0  0  0  0  0  0  0  0
  -12.3341   -3.5104    6.1735 C   0  0  0  0  0  0  0  0  0  0  0  0
  -11.5585   -2.3409    6.7392 C   0  0  0  0  0  0  0  0  0  0  0  0
  -10.6301   -1.7080    5.6855 C   0  0  0  0  0  0  0  0  0  0  0  0
   -8.7997    4.0196    4.7774 N   0  0  0  0  0  0  0  0  0  0  0  0
   -9.8980    4.9758    4.6535 C   0  0  0  0  0  0  0  0  0  0  0  0
  1  3  4  0
  1 14  4  0
  1  2  1  0
  3  4  4  0
  4  5  4  0
  5  6  4  0
  5 22  1  0
  6  7  1  0
  6 14  4  0
  7  8  1  0
  8  9  4  0
  8 12  4  0
  9 10  4  0
 10 11  4  0
 11 12  4  0
 12 13  1  0
 13 14  1  0
 13 15  1  6
 15 16  4  0
 15 20  4  0
 16 17  4  0
 17 18  4  0
 17 21  1  0
 18 19  4  0
 19 20  4  0
 23 24  4  0
 24 25  4  0
 25 26  1  0
 26 27  1  0
 27 28  1  0
 28 29  1  0
 29 30  1  0
 30 31  1  0
 31 32  1  0
 32 33  4  0
 33 34  4  0
 34 35  4  0
 35 36  4  0
 36 37  1  0
 36 38  4  0
 38 39  4  0
 39 40  4  0
 40 41  1  0
 40 42  4  0
 42 43  1  0
 43 44  1  0
 25 45  4  0
 45 46  1  0
 44 29  1  0
 42 32  4  0
 39 34  4  0
  2 23  4  0
  2 45  4  0
M  CHG  1  29   1
M  END
$$$$

     RDKit          3D

 46 53  0  0  0  0  0  0  0  0999 V2000
   -7.6410    4.9930    6.8080 C   0  0  0  0  0  0  0  0  0  1  0  0
   -7.7310    4.0530    5.7140 C   0  0  0  0  0  0  0  0  0  2  0  0
   -6.4520    5.6300    6.8680 N   0  0  0  0  0  0  0  0  0  0  0  0
   -6.2260    6.5240    7.8670 N   0  0  0  0  0  0  0  0  0  0  0  0
   -7.1930    6.7500    8.7820 C   0  0  0  0  0  0  0  0  0  0  0  0
   -8.4240    6.1170    8.7580 C   0  0  0  0  0  0  0  0  0  0  0  0
   -9.3950    6.3570    9.7450 N   0  0  0  0  0  0  0  0  0  0  0  0
  -10.5620    5.6840    9.7600 C   0  0  0  0  0  0  0  0  0  0  0  0
  -11.5770    5.6820   10.5960 N   0  0  0  0  0  0  0  0  0  0  0  0
  -12.4690    4.7490   10.1080 N   0  0  0  0  0  0  0  0  0  0  0  0
  -12.0160    4.1880    8.9920 N   0  0  0  0  0  0  0  0  0  0  0  0
  -10.8400    4.7900    8.7610 N   0  0  0  0  0  0  0  0  0  0  0  0
   -9.9950    4.4790    7.6090 C   0  0  0  0  0  0  0  0  0  0  0  0
   -8.6630    5.2070    7.7200 C   0  0  0  0  0  0  0  0  0  0  0  0
  -10.7490    4.8610    6.3730 C   0  0  0  0  0  0  0  0  0  0  0  0
  -11.0350    6.2020    6.1170 C   0  0  0  0  0  0  0  0  0  0  0  0
  -11.7370    6.5580    4.9650 C   0  0  0  0  0  0  0  0  0  0  0  0
  -12.1550    5.5730    4.0710 C   0  0  0  0  0  0  0  0  0  0  0  0
  -11.8700    4.2310    4.3270 C   0  0  0  0  0  0  0  0  0  0  0  0
  -11.1660    3.8760    5.4790 C   0  0  0  0  0  0  0  0  0  0  0  0
  -12.0160    7.8660    4.7150 O   0  0  0  0  0  0  0  0  0  0  0  0
   -6.8990    7.6510    9.7710 O   0  0  0  0  0  0  0  0  0  0  0  0
   -6.9914    2.9328    5.4934 N   0  0  0  0  0  0  0  0  0  0  0  0
   -7.4812    2.2467    4.4709 N   0  0  0  0  0  0  0  0  0  0  0  0
   -8.5820    2.8996    4.0546 C   0  0  0  0  0  0  0  0  0  0  0  0
   -9.6040    2.3451    2.6875 S   0  0  0  0  0  0  0  0  0  0  0  0
   -8.7153    3.3221    1.4198 C   0  0  0  0  0  0  0  0  0  0  0  0
   -7.4058    2.6373    0.9584 C   0  0  0  0  0  0  0  0  0  0  0  0
   -7.5392    1.7313   -0.2142 N   0  0  0  0  0  0  0  0  0  0  0  0
   -7.8669    2.4831   -1.4531 C   0  0  0  0  0  0  0  0  0  0  0  0
   -7.5663    1.6797   -2.7315 C   0  0  0  0  0  0  0  0  0  0  0  0
   -8.7120    0.7615   -3.0850 C   0  0  0  0  0  0  0  0  0  0  0  0
   -9.4152    0.9854   -4.2913 C   0  0  0  0  0  0  0  0  0  0  0  0
  -10.4883    0.1576   -4.5882 C   0  0  0  0  0  0  0  0  0  0  0  0
  -11.2876    0.2038   -5.6679 N   0  0  0  0  0  0  0  0  0  0  0  0
  -12.1497   -0.8165   -5.4203 C   0  0  0  0  0  0  0  0  0  0  0  0
  -13.2692   -1.1789   -6.3351 C   0  0  0  0  0  0  0  0  0  0  0  0
  -11.9141   -1.4394   -4.2789 O   0  0  0  0  0  0  0  0  0  0  0  0
  -10.8783   -0.8399   -3.7555 C   0  0  0  0  0  0  0  0  0  0  0  0
  -10.2279   -1.1126   -2.5568 C   0  0  0  0  0  0  0  0  0  0  0  0
  -10.8999   -2.5397   -1.4639 Br  0  0  0  0  0  0  0  0  0  0  0  0
   -9.1065   -0.3027   -2.2115 C   0  0  0  0  0  0  0  0  0  0  0  0
   -8.3328   -0.5446   -0.9331 C   0  0  0  0  0  0  0  0  0  0  0  0
   -8.4885    0.6248    0.0561 C   0  0  0  0  0  0  0  0  0  0  0  0
   -8.8117    4.0044    4.7901 N   0  0  0  0  0  0  0  0  0  0  0  0
   -9.9204    4.9494    4.6739 C   0  0  0  0  0  0  0  0  0  0  0  0
  1  3  4  0
  1 14  4  0
  1  2  1  0
  3  4  4  0
  4  5  4  0
  5  6  4  0
  5 22  1  0
  6  7  1  0
  6 14  4  0
  7  8  1  0
  8  9  4  0
  8 12  4  0
  9 10  4  0
 10 11  4  0
 11 12  4  0
 12 13  1  0
 13 14  1  0
 13 15  1  6
 15 16  4  0
 15 20  4  0
 16 17  4  0
 17 18  4  0
 17 21  1  0
 18 19  4  0
 19 20  4  0
 23 24  4  0
 24 25  4  0
 25 26  1  0
 26 27  1  0
 27 28  1  0
 28 29  1  0
 29 30  1  0
 30 31  1  0
 31 32  1  0
 32 33  4  0
 33 34  4  0
 34 35  4  0
 35 36  4  0
 36 37  1  0
 36 38  4  0
 38 39  4  0
 39 40  4  0
 40 41  1  0
 40 42  4  0
 42 43  1  0
 43 44  1  0
 25 45  4  0
 45 46  1  0
 44 29  1  0
 42 32  4  0
 39 34  4  0
  2 23  4  0
  2 45  4  0
M  CHG  1  29   1
M  END
$$$$

     RDKit          3D

 48 54  0  0  0  0  0  0  0  0999 V2000
   -7.6410    4.9930    6.8080 C   0  0  0  0  0  0  0  0  0  1  0  0
   -7.7310    4.0530    5.7140 C   0  0  0  0  0  0  0  0  0  2  0  0
   -6.4520    5.6300    6.8680 N   0  0  0  0  0  0  0  0  0  0  0  0
   -6.2260    6.5240    7.8670 N   0  0  0  0  0  0  0  0  0  0  0  0
   -7.1930    6.7500    8.7820 C   0  0  0  0  0  0  0  0  0  0  0  0
   -8.4240    6.1170    8.7580 C   0  0  0  0  0  0  0  0  0  0  0  0
   -9.3950    6.3570    9.7450 N   0  0  0  0  0  0  0  0  0  0  0  0
  -10.5620    5.6840    9.7600 C   0  0  0  0  0  0  0  0  0  0  0  0
  -11.5770    5.6820   10.5960 N   0  0  0  0  0  0  0  0  0  0  0  0
  -12.4690    4.7490   10.1080 N   0  0  0  0  0  0  0  0  0  0  0  0
  -12.0160    4.1880    8.9920 N   0  0  0  0  0  0  0  0  0  0  0  0
  -10.8400    4.7900    8.7610 N   0  0  0  0  0  0  0  0  0  0  0  0
   -9.9950    4.4790    7.6090 C   0  0  0  0  0  0  0  0  0  0  0  0
   -8.6630    5.2070    7.7200 C   0  0  0  0  0  0  0  0  0  0  0  0
  -10.7490    4.8610    6.3730 C   0  0  0  0  0  0  0  0  0  0  0  0
  -11.0350    6.2020    6.1170 C   0  0  0  0  0  0  0  0  0  0  0  0
  -11.7370    6.5580    4.9650 C   0  0  0  0  0  0  0  0  0  0  0  0
  -12.1550    5.5730    4.0710 C   0  0  0  0  0  0  0  0  0  0  0  0
  -11.8700    4.2310    4.3270 C   0  0  0  0  0  0  0  0  0  0  0  0
  -11.1660    3.8760    5.4790 C   0  0  0  0  0  0  0  0  0  0  0  0
  -12.0160    7.8660    4.7150 O   0  0  0  0  0  0  0  0  0  0  0  0
   -6.8990    7.6510    9.7710 O   0  0  0  0  0  0  0  0  0  0  0  0
   -6.7676    3.0692    5.4227 C   0  0  0  0  0  0  0  0  0  0  0  0
   -6.8832    2.1581    4.3648 C   0  0  0  0  0  0  0  0  0  0  0  0
   -5.8150    1.2365    4.1067 N   0  0  0  0  0  0  0  0  0  0  0  0
   -5.2856    0.9618    2.7975 C   0  0  0  0  0  0  0  0  0  0  0  0
   -4.7112   -0.1449    2.6002 O   0  0  0  0  0  0  0  0  0  0  0  0
   -5.3588    1.9821    1.6725 C   0  0  0  0  0  0  0  0  0  0  0  0
   -4.7931    3.3507    2.0970 C   0  0  0  0  0  0  0  0  0  0  0  0
   -4.6978    1.4821    0.4299 N   0  0  0  0  0  0  0  0  0  0  0  0
   -5.4406    1.1476   -0.6895 C   0  0  0  0  0  0  0  0  0  0  0  0
   -6.9458    1.1745   -0.7114 C   0  0  0  0  0  0  0  0  0  0  0  0
   -4.8184    0.7799   -1.8396 N   0  0  0  0  0  0  0  0  0  0  0  0
   -3.4725    0.6928   -1.9319 C   0  0  0  0  0  0  0  0  0  0  0  0
   -2.8763    0.3257   -3.1442 C   0  0  0  0  0  0  0  0  0  0  0  0
   -1.4848    0.2237   -3.2354 C   0  0  0  0  0  0  0  0  0  0  0  0
   -0.6879    0.4814   -2.1159 C   0  0  0  0  0  0  0  0  0  0  0  0
   -1.2797    0.8467   -0.9027 C   0  0  0  0  0  0  0  0  0  0  0  0
   -2.6805    0.9609   -0.8049 C   0  0  0  0  0  0  0  0  0  0  0  0
   -3.3228    1.3428    0.3850 C   0  0  0  0  0  0  0  0  0  0  0  0
   -2.6244    1.5525    1.4161 O   0  0  0  0  0  0  0  0  0  0  0  0
   -8.0587    2.1329    3.6003 C   0  0  0  0  0  0  0  0  0  0  0  0
   -9.0772    3.0541    3.8476 C   0  0  0  0  0  0  0  0  0  0  0  0
   -8.9420    4.0014    4.8694 C   0  0  0  0  0  0  0  0  0  0  0  0
   -9.9570    4.9419    5.0620 O   0  0  0  0  0  0  0  0  0  0  0  0
   -9.9923    6.1669    4.3373 C   0  0  0  0  0  0  0  0  0  0  0  0
  -10.0216    5.9189    2.9763 F   0  0  0  0  0  0  0  0  0  0  0  0
   -8.8791    6.9305    4.6445 F   0  0  0  0  0  0  0  0  0  0  0  0
  1  3  4  0
  1 14  4  0
  1  2  1  0
  3  4  4  0
  4  5  4  0
  5  6  4  0
  5 22  1  0
  6  7  1  0
  6 14  4  0
  7  8  1  0
  8  9  4  0
  8 12  4  0
  9 10  4  0
 10 11  4  0
 11 12  4  0
 12 13  1  0
 13 14  1  0
 13 15  1  6
 15 16  4  0
 15 20  4  0
 16 17  4  0
 17 18  4  0
 17 21  1  0
 18 19  4  0
 19 20  4  0
 23 24  4  0
 24 25  1  0
 25 26  1  0
 26 27  2  0
 26 28  1  0
 28 29  1  0
 28 30  1  0
 30 31  4  0
 31 32  1  0
 31 33  4  0
 33 34  4  0
 34 35  4  0
 35 36  4  0
 36 37  4  0
 37 38  4  0
 38 39  4  0
 39 40  4  0
 40 41  2  0
 24 42  4  0
 42 43  4  0
 43 44  4  0
 44 45  1  0
 45 46  1  0
 46 47  1  0
 46 48  1  0
 40 30  4  0
 39 34  4  0
  2 23  4  0
  2 44  4  0
M  END
$$$$

     RDKit          3D

 28 32  0  0  0  0  0  0  0  0999 V2000
   -7.6410    4.9930    6.8080 C   0  0  0  0  0  0  0  0  0  1  0  0
   -7.7310    4.0530    5.7140 C   0  0  0  0  0  0  0  0  0  2  0  0
   -6.4520    5.6300    6.8680 N   0  0  0  0  0  0  0  0  0  0  0  0
   -6.2260    6.5240    7.8670 N   0  0  0  0  0  0  0  0  0  0  0  0
   -7.1930    6.7500    8.7820 C   0  0  0  0  0  0  0  0  0  0  0  0
   -8.4240    6.1170    8.7580 C   0  0  0  0  0  0  0  0  0  0  0  0
   -9.3950    6.3570    9.7450 N   0  0  0  0  0  0  0  0  0  0  0  0
  -10.5620    5.6840    9.7600 C   0  0  0  0  0  0  0  0  0  0  0  0
  -11.5770    5.6820   10.5960 N   0  0  0  0  0  0  0  0  0  0  0  0
  -12.4690    4.7490   10.1080 N   0  0  0  0  0  0  0  0  0  0  0  0
  -12.0160    4.1880    8.9920 N   0  0  0  0  0  0  0  0  0  0  0  0
  -10.8400    4.7900    8.7610 N   0  0  0  0  0  0  0  0  0  0  0  0
   -9.9950    4.4790    7.6090 C   0  0  0  0  0  0  0  0  0  0  0  0
   -8.6630    5.2070    7.7200 C   0  0  0  0  0  0  0  0  0  0  0  0
  -10.7490    4.8610    6.3730 C   0  0  0  0  0  0  0  0  0  0  0  0
  -11.0350    6.2020    6.1170 C   0  0  0  0  0  0  0  0  0  0  0  0
  -11.7370    6.5580    4.9650 C   0  0  0  0  0  0  0  0  0  0  0  0
  -12.1550    5.5730    4.0710 C   0  0  0  0  0  0  0  0  0  0  0  0
  -11.8700    4.2310    4.3270 C   0  0  0  0  0  0  0  0  0  0  0  0
  -11.1660    3.8760    5.4790 C   0  0  0  0  0  0  0  0  0  0  0  0
  -12.0160    7.8660    4.7150 O   0  0  0  0  0  0  0  0  0  0  0  0
   -6.8990    7.6510    9.7710 O   0  0  0  0  0  0  0  0  0  0  0  0
   -6.9151    2.9061    5.6152 C   0  0  0  0  0  0  0  0  0  0  0  0
   -7.0635    1.9557    4.6054 C   0  0  0  0  0  0  0  0  0  0  0  0
   -8.0815    2.1109    3.6657 C   0  0  0  0  0  0  0  0  0  0  0  0
   -8.9110    3.1847    3.7328 N   0  0  0  0  0  0  0  0  0  0  0  0
   -8.7929    4.1358    4.7007 C   0  0  0  0  0  0  0  0  0  0  0  0
   -9.7422    5.2982    4.6803 C   0  0  0  0  0  0  0  0  0  0  0  0
  1  3  4  0
  1 14  4  0
  1  2  1  0
  3  4  4  0
  4  5  4  0
  5  6  4  0
  5 22  1  0
  6  7  1  0
  6 14  4  0
  7  8  1  0
  8  9  4  0
  8 12  4  0
  9 10  4  0
 10 11  4  0
 11 12  4  0
 12 13  1  0
 13 14  1  0
 13 15  1  6
 15 16  4  0
 15 20  4  0
 16 17  4  0
 17 18  4  0
 17 21  1  0
 18 19  4  0
 19 20  4  0
 23 24  4  0
 24 25  4  0
 25 26  4  0
 26 27  4  0
 27 28  1  0
  2 23  4  0
  2 27  4  0
M  END
$$$$

     RDKit          3D

 40 45  0  0  0  0  0  0  0  0999 V2000
   -7.6410    4.9930    6.8080 C   0  0  0  0  0  0  0  0  0  1  0  0
   -7.7310    4.0530    5.7140 C   0  0  0  0  0  0  0  0  0  2  0  0
   -6.4520    5.6300    6.8680 N   0  0  0  0  0  0  0  0  0  0  0  0
   -6.2260    6.5240    7.8670 N   0  0  0  0  0  0  0  0  0  0  0  0
   -7.1930    6.7500    8.7820 C   0  0  0  0  0  0  0  0  0  0  0  0
   -8.4240    6.1170    8.7580 C   0  0  0  0  0  0  0  0  0  0  0  0
   -9.3950    6.3570    9.7450 N   0  0  0  0  0  0  0  0  0  0  0  0
  -10.5620    5.6840    9.7600 C   0  0  0  0  0  0  0  0  0  0  0  0
  -11.5770    5.6820   10.5960 N   0  0  0  0  0  0  0  0  0  0  0  0
  -12.4690    4.7490   10.1080 N   0  0  0  0  0  0  0  0  0  0  0  0
  -12.0160    4.1880    8.9920 N   0  0  0  0  0  0  0  0  0  0  0  0
  -10.8400    4.7900    8.7610 N   0  0  0  0  0  0  0  0  0  0  0  0
   -9.9950    4.4790    7.6090 C   0  0  0  0  0  0  0  0  0  0  0  0
   -8.6630    5.2070    7.7200 C   0  0  0  0  0  0  0  0  0  0  0  0
  -10.7490    4.8610    6.3730 C   0  0  0  0  0  0  0  0  0  0  0  0
  -11.0350    6.2020    6.1170 C   0  0  0  0  0  0  0  0  0  0  0  0
  -11.7370    6.5580    4.9650 C   0  0  0  0  0  0  0  0  0  0  0  0
  -12.1550    5.5730    4.0710 C   0  0  0  0  0  0  0  0  0  0  0  0
  -11.8700    4.2310    4.3270 C   0  0  0  0  0  0  0  0  0  0  0  0
  -11.1660    3.8760    5.4790 C   0  0  0  0  0  0  0  0  0  0  0  0
  -12.0160    7.8660    4.7150 O   0  0  0  0  0  0  0  0  0  0  0  0
   -6.8990    7.6510    9.7710 O   0  0  0  0  0  0  0  0  0  0  0  0
   -6.8111    3.0301    5.4772 C   0  0  0  0  0  0  0  0  0  0  0  0
   -6.9357    2.0993    4.4419 C   0  0  0  0  0  0  0  0  0  0  0  0
   -5.9266    1.1346    4.2292 C   0  0  0  0  0  0  0  0  0  0  0  0
   -4.8063    1.1135    5.0802 O   0  0  0  0  0  0  0  0  0  0  0  0
   -3.7207    0.1978    4.9748 C   0  0  0  0  0  0  0  0  0  0  0  0
   -6.0592    0.2187    3.1730 C   0  0  0  0  0  0  0  0  0  0  0  0
   -7.1761    0.2592    2.3276 C   0  0  0  0  0  0  0  0  0  0  0  0
   -7.3375   -0.6302    1.2535 O   0  0  0  0  0  0  0  0  0  0  0  0
   -6.4099   -1.6528    0.9043 C   0  0  0  0  0  0  0  0  0  0  0  0
   -8.1714    1.2126    2.5467 C   0  0  0  0  0  0  0  0  0  0  0  0
   -8.0855    2.1432    3.6097 C   0  0  0  0  0  0  0  0  0  0  0  0
   -9.0744    3.0862    3.8444 N   0  0  0  0  0  0  0  0  0  0  0  0
  -10.3060    3.1355    3.0207 C   0  0  0  0  0  0  0  0  0  0  0  0
  -10.0477    3.8534    1.7316 C   0  0  0  0  0  0  0  0  0  0  0  0
  -10.2590    3.2794    0.6311 O   0  0  0  0  0  0  0  0  0  0  0  0
   -9.5876    5.1639    1.7461 O   0  0  0  0  0  0  0  0  0  0  0  0
   -8.9138    4.0252    4.8405 C   0  0  0  0  0  0  0  0  0  0  0  0
   -9.7709    4.9405    4.9962 O   0  0  0  0  0  0  0  0  0  0  0  0
  1  3  4  0
  1 14  4  0
  1  2  1  0
  3  4  4  0
  4  5  4  0
  5  6  4  0
  5 22  1  0
  6  7  1  0
  6 14  4  0
  7  8  1  0
  8  9  4  0
  8 12  4  0
  9 10  4  0
 10 11  4  0
 11 12  4  0
 12 13  1  0
 13 14  1  0
 13 15  1  6
 15 16  4  0
 15 20  4  0
 16 17  4  0
 17 18  4  0
 17 21  1  0
 18 19  4  0
 19 20  4  0
 23 24  4  0
 24 25  4  0
 25 26  1  0
 26 27  1  0
 25 28  4  0
 28 29  4  0
 29 30  1  0
 30 31  1  0
 29 32  4  0
 32 33  4  0
 33 34  4  0
 34 35  1  0
 35 36  1  0
 36 37  2  0
 36 38  1  0
 34 39  4  0
 39 40  2  0
 33 24  4  0
  2 23  4  0
  2 39  4  0
M  CHG  1  38  -1
M  END
$$$$

     RDKit          3D

 40 45  0  0  0  0  0  0  0  0999 V2000
   -7.6410    4.9930    6.8080 C   0  0  0  0  0  0  0  0  0  1  0  0
   -7.7310    4.0530    5.7140 C   0  0  0  0  0  0  0  0  0  2  0  0
   -6.4520    5.6300    6.8680 N   0  0  0  0  0  0  0  0  0  0  0  0
   -6.2260    6.5240    7.8670 N   0  0  0  0  0  0  0  0  0  0  0  0
   -7.1930    6.7500    8.7820 C   0  0  0  0  0  0  0  0  0  0  0  0
   -8.4240    6.1170    8.7580 C   0  0  0  0  0  0  0  0  0  0  0  0
   -9.3950    6.3570    9.7450 N   0  0  0  0  0  0  0  0  0  0  0  0
  -10.5620    5.6840    9.7600 C   0  0  0  0  0  0  0  0  0  0  0  0
  -11.5770    5.6820   10.5960 N   0  0  0  0  0  0  0  0  0  0  0  0
  -12.4690    4.7490   10.1080 N   0  0  0  0  0  0  0  0  0  0  0  0
  -12.0160    4.1880    8.9920 N   0  0  0  0  0  0  0  0  0  0  0  0
  -10.8400    4.7900    8.7610 N   0  0  0  0  0  0  0  0  0  0  0  0
   -9.9950    4.4790    7.6090 C   0  0  0  0  0  0  0  0  0  0  0  0
   -8.6630    5.2070    7.7200 C   0  0  0  0  0  0  0  0  0  0  0  0
  -10.7490    4.8610    6.3730 C   0  0  0  0  0  0  0  0  0  0  0  0
  -11.0350    6.2020    6.1170 C   0  0  0  0  0  0  0  0  0  0  0  0
  -11.7370    6.5580    4.9650 C   0  0  0  0  0  0  0  0  0  0  0  0
  -12.1550    5.5730    4.0710 C   0  0  0  0  0  0  0  0  0  0  0  0
  -11.8700    4.2310    4.3270 C   0  0  0  0  0  0  0  0  0  0  0  0
  -11.1660    3.8760    5.4790 C   0  0  0  0  0  0  0  0  0  0  0  0
  -12.0160    7.8660    4.7150 O   0  0  0  0  0  0  0  0  0  0  0  0
   -6.8990    7.6510    9.7710 O   0  0  0  0  0  0  0  0  0  0  0  0
   -6.8167    3.0226    5.4860 C   0  0  0  0  0  0  0  0  0  0  0  0
   -6.9682    2.0570    4.4866 C   0  0  0  0  0  0  0  0  0  0  0  0
   -5.9942    1.0489    4.3199 C   0  0  0  0  0  0  0  0  0  0  0  0
   -4.8566    1.0472    5.1474 O   0  0  0  0  0  0  0  0  0  0  0  0
   -3.8052    0.0889    5.0820 C   0  0  0  0  0  0  0  0  0  0  0  0
   -6.1814    0.0672    3.3341 C   0  0  0  0  0  0  0  0  0  0  0  0
   -7.3178    0.0664    2.5290 C   0  0  0  0  0  0  0  0  0  0  0  0
   -7.4505   -0.9573    1.5775 O   0  0  0  0  0  0  0  0  0  0  0  0
   -8.5508   -1.0954    0.6840 C   0  0  0  0  0  0  0  0  0  0  0  0
   -8.2829    1.0735    2.6926 C   0  0  0  0  0  0  0  0  0  0  0  0
   -8.1199    2.0980    3.6570 C   0  0  0  0  0  0  0  0  0  0  0  0
   -9.0506    3.1135    3.8156 N   0  0  0  0  0  0  0  0  0  0  0  0
  -10.2247    3.2316    2.9168 C   0  0  0  0  0  0  0  0  0  0  0  0
  -11.3241    2.2962    3.3268 C   0  0  0  0  0  0  0  0  0  0  0  0
  -12.3726    2.2256    2.6341 O   0  0  0  0  0  0  0  0  0  0  0  0
  -11.2039    1.5107    4.4676 O   0  0  0  0  0  0  0  0  0  0  0  0
   -8.9069    4.0332    4.8320 C   0  0  0  0  0  0  0  0  0  0  0  0
   -9.7758    4.9347    5.0018 O   0  0  0  0  0  0  0  0  0  0  0  0
  1  3  4  0
  1 14  4  0
  1  2  1  0
  3  4  4  0
  4  5  4  0
  5  6  4  0
  5 22  1  0
  6  7  1  0
  6 14  4  0
  7  8  1  0
  8  9  4  0
  8 12  4  0
  9 10  4  0
 10 11  4  0
 11 12  4  0
 12 13  1  0
 13 14  1  0
 13 15  1  6
 15 16  4  0
 15 20  4  0
 16 17  4  0
 17 18  4  0
 17 21  1  0
 18 19  4  0
 19 20  4  0
 23 24  4  0
 24 25  4  0
 25 26  1  0
 26 27  1  0
 25 28  4  0
 28 29  4  0
 29 30  1  0
 30 31  1  0
 29 32  4  0
 32 33  4  0
 33 34  4  0
 34 35  1  0
 35 36  1  0
 36 37  2  0
 36 38  1  0
 34 39  4  0
 39 40  2  0
 33 24  4  0
  2 23  4  0
  2 39  4  0
M  CHG  1  38  -1
M  END
$$$$

     RDKit          3D

 41 47  0  0  0  0  0  0  0  0999 V2000
   -7.6410    4.9930    6.8080 C   0  0  0  0  0  0  0  0  0  1  0  0
   -7.7310    4.0530    5.7140 C   0  0  0  0  0  0  0  0  0  2  0  0
   -6.4520    5.6300    6.8680 N   0  0  0  0  0  0  0  0  0  0  0  0
   -6.2260    6.5240    7.8670 N   0  0  0  0  0  0  0  0  0  0  0  0
   -7.1930    6.7500    8.7820 C   0  0  0  0  0  0  0  0  0  0  0  0
   -8.4240    6.1170    8.7580 C   0  0  0  0  0  0  0  0  0  0  0  0
   -9.3950    6.3570    9.7450 N   0  0  0  0  0  0  0  0  0  0  0  0
  -10.5620    5.6840    9.7600 C   0  0  0  0  0  0  0  0  0  0  0  0
  -11.5770    5.6820   10.5960 N   0  0  0  0  0  0  0  0  0  0  0  0
  -12.4690    4.7490   10.1080 N   0  0  0  0  0  0  0  0  0  0  0  0
  -12.0160    4.1880    8.9920 N   0  0  0  0  0  0  0  0  0  0  0  0
  -10.8400    4.7900    8.7610 N   0  0  0  0  0  0  0  0  0  0  0  0
   -9.9950    4.4790    7.6090 C   0  0  0  0  0  0  0  0  0  0  0  0
   -8.6630    5.2070    7.7200 C   0  0  0  0  0  0  0  0  0  0  0  0
  -10.7490    4.8610    6.3730 C   0  0  0  0  0  0  0  0  0  0  0  0
  -11.0350    6.2020    6.1170 C   0  0  0  0  0  0  0  0  0  0  0  0
  -11.7370    6.5580    4.9650 C   0  0  0  0  0  0  0  0  0  0  0  0
  -12.1550    5.5730    4.0710 C   0  0  0  0  0  0  0  0  0  0  0  0
  -11.8700    4.2310    4.3270 C   0  0  0  0  0  0  0  0  0  0  0  0
  -11.1660    3.8760    5.4790 C   0  0  0  0  0  0  0  0  0  0  0  0
  -12.0160    7.8660    4.7150 O   0  0  0  0  0  0  0  0  0  0  0  0
   -6.8990    7.6510    9.7710 O   0  0  0  0  0  0  0  0  0  0  0  0
   -7.0339    2.9011    5.5318 N   0  0  0  0  0  0  0  0  0  0  0  0
   -7.4844    2.2504    4.4710 N   0  0  0  0  0  0  0  0  0  0  0  0
   -8.5190    2.9602    3.9846 C   0  0  0  0  0  0  0  0  0  0  0  0
   -9.4241    2.4598    2.5190 S   0  0  0  0  0  0  0  0  0  0  0  0
   -8.1011    2.9485    1.3632 C   0  0  0  0  0  0  0  0  0  0  0  0
   -8.5710    2.7380   -0.0570 C   0  0  0  0  0  0  0  0  0  0  0  0
   -8.8366    3.8710   -0.8484 C   0  0  0  0  0  0  0  0  0  0  0  0
   -9.3396    3.7353   -2.1424 C   0  0  0  0  0  0  0  0  0  0  0  0
   -9.5803    2.4710   -2.6775 C   0  0  0  0  0  0  0  0  0  0  0  0
   -9.2828    1.3203   -1.9301 C   0  0  0  0  0  0  0  0  0  0  0  0
   -9.4945    0.0491   -2.4913 C   0  0  0  0  0  0  0  0  0  0  0  0
   -9.2023   -1.1019   -1.7568 C   0  0  0  0  0  0  0  0  0  0  0  0
   -8.6958   -0.9946   -0.4635 C   0  0  0  0  0  0  0  0  0  0  0  0
   -8.4741    0.2617    0.1074 C   0  0  0  0  0  0  0  0  0  0  0  0
   -8.7678    1.4419   -0.6117 C   0  0  0  0  0  0  0  0  0  0  0  0
   -8.7672    4.0626    4.7312 N   0  0  0  0  0  0  0  0  0  0  0  0
   -9.7579    5.1365    4.5296 C   0  0  0  0  0  0  0  0  0  0  0  0
  -11.1920    4.5831    4.4532 C   0  0  0  0  0  0  0  0  0  0  0  0
   -9.4074    5.9835    3.2912 C   0  0  0  0  0  0  0  0  0  0  0  0
  1  3  4  0
  1 14  4  0
  1  2  1  0
  3  4  4  0
  4  5  4  0
  5  6  4  0
  5 22  1  0
  6  7  1  0
  6 14  4  0
  7  8  1  0
  8  9  4  0
  8 12  4  0
  9 10  4  0
 10 11  4  0
 11 12  4  0
 12 13  1  0
 13 14  1  0
 13 15  1  6
 15 16  4  0
 15 20  4  0
 16 17  4  0
 17 18  4  0
 17 21  1  0
 18 19  4  0
 19 20  4  0
 23 24  4  0
 24 25  4  0
 25 26  1  0
 26 27  1  0
 27 28  1  0
 28 29  4  0
 29 30  4  0
 30 31  4  0
 31 32  4  0
 32 33  4  0
 33 34  4  0
 34 35  4  0
 35 36  4  0
 36 37  4  0
 25 38  4  0
 38 39  1  0
 39 40  1  0
 39 41  1  0
 37 28  4  0
 37 32  4  0
  2 23  4  0
  2 38  4  0
M  END
$$$$

     RDKit          3D

 41 47  0  0  0  0  0  0  0  0999 V2000
   -7.6410    4.9930    6.8080 C   0  0  0  0  0  0  0  0  0  1  0  0
   -7.7310    4.0530    5.7140 C   0  0  0  0  0  0  0  0  0  2  0  0
   -6.4520    5.6300    6.8680 N   0  0  0  0  0  0  0  0  0  0  0  0
   -6.2260    6.5240    7.8670 N   0  0  0  0  0  0  0  0  0  0  0  0
   -7.1930    6.7500    8.7820 C   0  0  0  0  0  0  0  0  0  0  0  0
   -8.4240    6.1170    8.7580 C   0  0  0  0  0  0  0  0  0  0  0  0
   -9.3950    6.3570    9.7450 N   0  0  0  0  0  0  0  0  0  0  0  0
  -10.5620    5.6840    9.7600 C   0  0  0  0  0  0  0  0  0  0  0  0
  -11.5770    5.6820   10.5960 N   0  0  0  0  0  0  0  0  0  0  0  0
  -12.4690    4.7490   10.1080 N   0  0  0  0  0  0  0  0  0  0  0  0
  -12.0160    4.1880    8.9920 N   0  0  0  0  0  0  0  0  0  0  0  0
  -10.8400    4.7900    8.7610 N   0  0  0  0  0  0  0  0  0  0  0  0
   -9.9950    4.4790    7.6090 C   0  0  0  0  0  0  0  0  0  0  0  0
   -8.6630    5.2070    7.7200 C   0  0  0  0  0  0  0  0  0  0  0  0
  -10.7490    4.8610    6.3730 C   0  0  0  0  0  0  0  0  0  0  0  0
  -11.0350    6.2020    6.1170 C   0  0  0  0  0  0  0  0  0  0  0  0
  -11.7370    6.5580    4.9650 C   0  0  0  0  0  0  0  0  0  0  0  0
  -12.1550    5.5730    4.0710 C   0  0  0  0  0  0  0  0  0  0  0  0
  -11.8700    4.2310    4.3270 C   0  0  0  0  0  0  0  0  0  0  0  0
  -11.1660    3.8760    5.4790 C   0  0  0  0  0  0  0  0  0  0  0  0
  -12.0160    7.8660    4.7150 O   0  0  0  0  0  0  0  0  0  0  0  0
   -6.8990    7.6510    9.7710 O   0  0  0  0  0  0  0  0  0  0  0  0
   -7.0411    2.8973    5.5296 N   0  0  0  0  0  0  0  0  0  0  0  0
   -7.5364    2.2123    4.5118 N   0  0  0  0  0  0  0  0  0  0  0  0
   -8.6086    2.8914    4.0651 C   0  0  0  0  0  0  0  0  0  0  0  0
   -9.6044    2.3143    2.6881 S   0  0  0  0  0  0  0  0  0  0  0  0
  -10.5815    1.1549    3.7194 C   0  0  0  0  0  0  0  0  0  0  0  0
  -11.7834    0.5143    3.0370 C   0  0  0  0  0  0  0  0  0  0  0  0
  -12.1347    0.8398    1.7088 C   0  0  0  0  0  0  0  0  0  0  0  0
  -13.2339    0.2479    1.0893 C   0  0  0  0  0  0  0  0  0  0  0  0
  -14.0141   -0.6790    1.7716 C   0  0  0  0  0  0  0  0  0  0  0  0
  -13.7045   -1.0242    3.0915 C   0  0  0  0  0  0  0  0  0  0  0  0
  -14.5038   -1.9557    3.7728 C   0  0  0  0  0  0  0  0  0  0  0  0
  -14.2082   -2.3072    5.0890 C   0  0  0  0  0  0  0  0  0  0  0  0
  -13.1172   -1.7326    5.7380 C   0  0  0  0  0  0  0  0  0  0  0  0
  -12.3125   -0.8018    5.0767 C   0  0  0  0  0  0  0  0  0  0  0  0
  -12.5867   -0.4300    3.7404 C   0  0  0  0  0  0  0  0  0  0  0  0
   -8.8204    4.0220    4.7805 N   0  0  0  0  0  0  0  0  0  0  0  0
   -9.7872    5.1139    4.5552 C   0  0  0  0  0  0  0  0  0  0  0  0
  -11.2314    4.6271    4.7068 C   0  0  0  0  0  0  0  0  0  0  0  0
   -9.5528    5.7891    3.2003 C   0  0  0  0  0  0  0  0  0  0  0  0
  1  3  4  0
  1 14  4  0
  1  2  1  0
  3  4  4  0
  4  5  4  0
  5  6  4  0
  5 22  1  0
  6  7  1  0
  6 14  4  0
  7  8  1  0
  8  9  4  0
  8 12  4  0
  9 10  4  0
 10 11  4  0
 11 12  4  0
 12 13  1  0
 13 14  1  0
 13 15  1  6
 15 16  4  0
 15 20  4  0
 16 17  4  0
 17 18  4  0
 17 21  1  0
 18 19  4  0
 19 20  4  0
 23 24  4  0
 24 25  4  0
 25 26  1  0
 26 27  1  0
 27 28  1  0
 28 29  4  0
 29 30  4  0
 30 31  4  0
 31 32  4  0
 32 33  4  0
 33 34  4  0
 34 35  4  0
 35 36  4  0
 36 37  4  0
 25 38  4  0
 38 39  1  0
 39 40  1  0
 39 41  1  0
 37 28  4  0
 37 32  4  0
  2 23  4  0
  2 38  4  0
M  END
$$$$

     RDKit          3D

 48 55  0  0  0  0  0  0  0  0999 V2000
   -7.6410    4.9930    6.8080 C   0  0  0  0  0  0  0  0  0  1  0  0
   -7.7310    4.0530    5.7140 C   0  0  0  0  0  0  0  0  0  2  0  0
   -6.4520    5.6300    6.8680 N   0  0  0  0  0  0  0  0  0  0  0  0
   -6.2260    6.5240    7.8670 N   0  0  0  0  0  0  0  0  0  0  0  0
   -7.1930    6.7500    8.7820 C   0  0  0  0  0  0  0  0  0  0  0  0
   -8.4240    6.1170    8.7580 C   0  0  0  0  0  0  0  0  0  0  0  0
   -9.3950    6.3570    9.7450 N   0  0  0  0  0  0  0  0  0  0  0  0
  -10.5620    5.6840    9.7600 C   0  0  0  0  0  0  0  0  0  0  0  0
  -11.5770    5.6820   10.5960 N   0  0  0  0  0  0  0  0  0  0  0  0
  -12.4690    4.7490   10.1080 N   0  0  0  0  0  0  0  0  0  0  0  0
  -12.0160    4.1880    8.9920 N   0  0  0  0  0  0  0  0  0  0  0  0
  -10.8400    4.7900    8.7610 N   0  0  0  0  0  0  0  0  0  0  0  0
   -9.9950    4.4790    7.6090 C   0  0  0  0  0  0  0  0  0  0  0  0
   -8.6630    5.2070    7.7200 C   0  0  0  0  0  0  0  0  0  0  0  0
  -10.7490    4.8610    6.3730 C   0  0  0  0  0  0  0  0  0  0  0  0
  -11.0350    6.2020    6.1170 C   0  0  0  0  0  0  0  0  0  0  0  0
  -11.7370    6.5580    4.9650 C   0  0  0  0  0  0  0  0  0  0  0  0
  -12.1550    5.5730    4.0710 C   0  0  0  0  0  0  0  0  0  0  0  0
  -11.8700    4.2310    4.3270 C   0  0  0  0  0  0  0  0  0  0  0  0
  -11.1660    3.8760    5.4790 C   0  0  0  0  0  0  0  0  0  0  0  0
  -12.0160    7.8660    4.7150 O   0  0  0  0  0  0  0  0  0  0  0  0
   -6.8990    7.6510    9.7710 O   0  0  0  0  0  0  0  0  0  0  0  0
   -6.9989    2.9442    5.4751 N   0  0  0  0  0  0  0  0  0  0  0  0
   -7.4495    2.3200    4.3969 N   0  0  0  0  0  0  0  0  0  0  0  0
   -8.5289    3.0014    3.9700 C   0  0  0  0  0  0  0  0  0  0  0  0
   -9.4384    2.5792    2.4743 S   0  0  0  0  0  0  0  0  0  0  0  0
  -10.6205    1.3720    3.2157 C   0  0  0  0  0  0  0  0  0  0  0  0
  -11.3517    1.9502    4.4338 C   0  0  0  0  0  0  0  0  0  0  0  0
   -9.9723    0.0462    3.5492 C   0  0  0  0  0  0  0  0  0  0  0  0
   -8.7195   -0.0786    3.4804 O   0  0  0  0  0  0  0  0  0  0  0  0
  -10.7679   -1.0924    3.9366 N   0  0  0  0  0  0  0  0  0  0  0  0
  -12.0179   -1.3707    3.1956 C   0  0  0  0  0  0  0  0  0  0  0  0
  -12.6379   -2.7335    3.5303 C   0  0  0  0  0  0  0  0  0  0  0  0
  -11.3647   -4.0267    3.4141 S   0  0  0  0  0  0  0  0  0  0  0  0
  -10.5117   -3.3775    4.8494 C   0  0  0  0  0  0  0  0  0  0  0  0
  -10.1286   -4.2407    5.8828 C   0  0  0  0  0  0  0  0  0  0  0  0
   -9.4602   -3.7390    7.0034 C   0  0  0  0  0  0  0  0  0  0  0  0
   -9.1873   -2.3720    7.1008 C   0  0  0  0  0  0  0  0  0  0  0  0
   -9.5910   -1.5016    6.0826 C   0  0  0  0  0  0  0  0  0  0  0  0
  -10.2616   -1.9969    4.9474 C   0  0  0  0  0  0  0  0  0  0  0  0
   -8.7827    4.0698    4.7537 N   0  0  0  0  0  0  0  0  0  0  0  0
   -9.7021    5.1825    4.4902 C   0  0  0  0  0  0  0  0  0  0  0  0
   -8.9376    6.3959    4.0320 C   0  0  0  0  0  0  0  0  0  0  0  0
   -8.2580    6.3756    2.8023 C   0  0  0  0  0  0  0  0  0  0  0  0
   -7.5276    7.4910    2.3814 C   0  0  0  0  0  0  0  0  0  0  0  0
   -7.4713    8.6344    3.1844 C   0  0  0  0  0  0  0  0  0  0  0  0
   -8.1460    8.6637    4.4094 C   0  0  0  0  0  0  0  0  0  0  0  0
   -8.8786    7.5505    4.8333 C   0  0  0  0  0  0  0  0  0  0  0  0
  1  3  4  0
  1 14  4  0
  1  2  1  0
  3  4  4  0
  4  5  4  0
  5  6  4  0
  5 22  1  0
  6  7  1  0
  6 14  4  0
  7  8  1  0
  8  9  4  0
  8 12  4  0
  9 10  4  0
 10 11  4  0
 11 12  4  0
 12 13  1  0
 13 14  1  0
 13 15  1  6
 15 16  4  0
 15 20  4  0
 16 17  4  0
 17 18  4  0
 17 21  1  0
 18 19  4  0
 19 20  4  0
 23 24  4  0
 24 25  4  0
 25 26  1  0
 26 27  1  0
 27 28  1  0
 27 29  1  0
 29 30  2  0
 29 31  1  0
 31 32  1  0
 32 33  1  0
 33 34  1  0
 34 35  1  0
 35 36  4  0
 36 37  4  0
 37 38  4  0
 38 39  4  0
 39 40  4  0
 25 41  4  0
 41 42  1  0
 42 43  1  0
 43 44  4  0
 44 45  4  0
 45 46  4  0
 46 47  4  0
 47 48  4  0
 48 43  4  0
 40 31  1  0
 40 35  4  0
  2 23  4  0
  2 41  4  0
M  END
$$$$

     RDKit          3D

 48 55  0  0  0  0  0  0  0  0999 V2000
   -7.6410    4.9930    6.8080 C   0  0  0  0  0  0  0  0  0  1  0  0
   -7.7310    4.0530    5.7140 C   0  0  0  0  0  0  0  0  0  2  0  0
   -6.4520    5.6300    6.8680 N   0  0  0  0  0  0  0  0  0  0  0  0
   -6.2260    6.5240    7.8670 N   0  0  0  0  0  0  0  0  0  0  0  0
   -7.1930    6.7500    8.7820 C   0  0  0  0  0  0  0  0  0  0  0  0
   -8.4240    6.1170    8.7580 C   0  0  0  0  0  0  0  0  0  0  0  0
   -9.3950    6.3570    9.7450 N   0  0  0  0  0  0  0  0  0  0  0  0
  -10.5620    5.6840    9.7600 C   0  0  0  0  0  0  0  0  0  0  0  0
  -11.5770    5.6820   10.5960 N   0  0  0  0  0  0  0  0  0  0  0  0
  -12.4690    4.7490   10.1080 N   0  0  0  0  0  0  0  0  0  0  0  0
  -12.0160    4.1880    8.9920 N   0  0  0  0  0  0  0  0  0  0  0  0
  -10.8400    4.7900    8.7610 N   0  0  0  0  0  0  0  0  0  0  0  0
   -9.9950    4.4790    7.6090 C   0  0  0  0  0  0  0  0  0  0  0  0
   -8.6630    5.2070    7.7200 C   0  0  0  0  0  0  0  0  0  0  0  0
  -10.7490    4.8610    6.3730 C   0  0  0  0  0  0  0  0  0  0  0  0
  -11.0350    6.2020    6.1170 C   0  0  0  0  0  0  0  0  0  0  0  0
  -11.7370    6.5580    4.9650 C   0  0  0  0  0  0  0  0  0  0  0  0
  -12.1550    5.5730    4.0710 C   0  0  0  0  0  0  0  0  0  0  0  0
  -11.8700    4.2310    4.3270 C   0  0  0  0  0  0  0  0  0  0  0  0
  -11.1660    3.8760    5.4790 C   0  0  0  0  0  0  0  0  0  0  0  0
  -12.0160    7.8660    4.7150 O   0  0  0  0  0  0  0  0  0  0  0  0
   -6.8990    7.6510    9.7710 O   0  0  0  0  0  0  0  0  0  0  0  0
   -7.1321    2.8363    5.5980 N   0  0  0  0  0  0  0  0  0  0  0  0
   -7.6647    2.1508    4.5971 N   0  0  0  0  0  0  0  0  0  0  0  0
   -8.6598    2.9017    4.0899 C   0  0  0  0  0  0  0  0  0  0  0  0
   -9.7278    2.3353    2.7597 S   0  0  0  0  0  0  0  0  0  0  0  0
   -8.7727    2.9391    1.3000 C   0  0  0  0  0  0  0  0  0  0  0  0
   -7.2509    2.9572    1.5016 C   0  0  0  0  0  0  0  0  0  0  0  0
   -9.1199    2.1175    0.0841 C   0  0  0  0  0  0  0  0  0  0  0  0
   -8.9628    2.6174   -1.0602 O   0  0  0  0  0  0  0  0  0  0  0  0
   -9.5786    0.7614    0.2040 N   0  0  0  0  0  0  0  0  0  0  0  0
   -8.5647   -0.2612    0.5379 C   0  0  0  0  0  0  0  0  0  0  0  0
   -9.1430   -1.6759    0.6397 C   0  0  0  0  0  0  0  0  0  0  0  0
  -10.5232   -1.6590    1.8172 S   0  0  0  0  0  0  0  0  0  0  0  0
  -11.5347   -0.6771    0.7115 C   0  0  0  0  0  0  0  0  0  0  0  0
  -12.8675   -1.0529    0.4843 C   0  0  0  0  0  0  0  0  0  0  0  0
  -13.6770   -0.2809   -0.3504 C   0  0  0  0  0  0  0  0  0  0  0  0
  -13.1669    0.8646   -0.9565 C   0  0  0  0  0  0  0  0  0  0  0  0
  -11.8311    1.2323   -0.7526 C   0  0  0  0  0  0  0  0  0  0  0  0
  -10.9911    0.4559    0.0717 C   0  0  0  0  0  0  0  0  0  0  0  0
   -8.7926    4.0664    4.7597 N   0  0  0  0  0  0  0  0  0  0  0  0
   -9.7026    5.1819    4.4745 C   0  0  0  0  0  0  0  0  0  0  0  0
   -9.2458    5.9566    3.2671 C   0  0  0  0  0  0  0  0  0  0  0  0
  -10.1357    6.2183    2.2123 C   0  0  0  0  0  0  0  0  0  0  0  0
   -9.7108    6.9439    1.0947 C   0  0  0  0  0  0  0  0  0  0  0  0
   -8.3985    7.4206    1.0267 C   0  0  0  0  0  0  0  0  0  0  0  0
   -7.5124    7.1819    2.0808 C   0  0  0  0  0  0  0  0  0  0  0  0
   -7.9362    6.4632    3.2019 C   0  0  0  0  0  0  0  0  0  0  0  0
  1  3  4  0
  1 14  4  0
  1  2  1  0
  3  4  4  0
  4  5  4  0
  5  6  4  0
  5 22  1  0
  6  7  1  0
  6 14  4  0
  7  8  1  0
  8  9  4  0
  8 12  4  0
  9 10  4  0
 10 11  4  0
 11 12  4  0
 12 13  1  0
 13 14  1  0
 13 15  1  6
 15 16  4  0
 15 20  4  0
 16 17  4  0
 17 18  4  0
 17 21  1  0
 18 19  4  0
 19 20  4  0
 23 24  4  0
 24 25  4  0
 25 26  1  0
 26 27  1  0
 27 28  1  0
 27 29  1  0
 29 30  2  0
 29 31  1  0
 31 32  1  0
 32 33  1  0
 33 34  1  0
 34 35  1  0
 35 36  4  0
 36 37  4  0
 37 38  4  0
 38 39  4  0
 39 40  4  0
 25 41  4  0
 41 42  1  0
 42 43  1  0
 43 44  4  0
 44 45  4  0
 45 46  4  0
 46 47  4  0
 47 48  4  0
 48 43  4  0
 40 31  1  0
 40 35  4  0
  2 23  4  0
  2 41  4  0
M  END
$$$$

     RDKit          3D

 48 55  0  0  0  0  0  0  0  0999 V2000
   -7.6410    4.9930    6.8080 C   0  0  0  0  0  0  0  0  0  1  0  0
   -7.7310    4.0530    5.7140 C   0  0  0  0  0  0  0  0  0  2  0  0
   -6.4520    5.6300    6.8680 N   0  0  0  0  0  0  0  0  0  0  0  0
   -6.2260    6.5240    7.8670 N   0  0  0  0  0  0  0  0  0  0  0  0
   -7.1930    6.7500    8.7820 C   0  0  0  0  0  0  0  0  0  0  0  0
   -8.4240    6.1170    8.7580 C   0  0  0  0  0  0  0  0  0  0  0  0
   -9.3950    6.3570    9.7450 N   0  0  0  0  0  0  0  0  0  0  0  0
  -10.5620    5.6840    9.7600 C   0  0  0  0  0  0  0  0  0  0  0  0
  -11.5770    5.6820   10.5960 N   0  0  0  0  0  0  0  0  0  0  0  0
  -12.4690    4.7490   10.1080 N   0  0  0  0  0  0  0  0  0  0  0  0
  -12.0160    4.1880    8.9920 N   0  0  0  0  0  0  0  0  0  0  0  0
  -10.8400    4.7900    8.7610 N   0  0  0  0  0  0  0  0  0  0  0  0
   -9.9950    4.4790    7.6090 C   0  0  0  0  0  0  0  0  0  0  0  0
   -8.6630    5.2070    7.7200 C   0  0  0  0  0  0  0  0  0  0  0  0
  -10.7490    4.8610    6.3730 C   0  0  0  0  0  0  0  0  0  0  0  0
  -11.0350    6.2020    6.1170 C   0  0  0  0  0  0  0  0  0  0  0  0
  -11.7370    6.5580    4.9650 C   0  0  0  0  0  0  0  0  0  0  0  0
  -12.1550    5.5730    4.0710 C   0  0  0  0  0  0  0  0  0  0  0  0
  -11.8700    4.2310    4.3270 C   0  0  0  0  0  0  0  0  0  0  0  0
  -11.1660    3.8760    5.4790 C   0  0  0  0  0  0  0  0  0  0  0  0
  -12.0160    7.8660    4.7150 O   0  0  0  0  0  0  0  0  0  0  0  0
   -6.8990    7.6510    9.7710 O   0  0  0  0  0  0  0  0  0  0  0  0
   -6.8900    2.9463    5.5029 C   0  0  0  0  0  0  0  0  0  0  0  0
   -7.4086    1.9863    4.2117 S   0  0  0  0  0  0  0  0  0  0  0  0
   -8.7578    2.9194    3.8787 C   0  0  0  0  0  0  0  0  0  0  0  0
   -9.6574    2.7135    2.8898 N   0  0  0  0  0  0  0  0  0  0  0  0
  -10.6809    3.5981    2.7340 C   0  0  0  0  0  0  0  0  0  0  0  0
  -11.8852    3.3317    1.4313 S   0  0  0  0  0  0  0  0  0  0  0  0
  -10.8763    4.0884    0.1084 C   0  0  0  0  0  0  0  0  0  0  0  0
  -11.1548    5.5609   -0.0017 C   0  0  0  0  0  0  0  0  0  0  0  0
  -10.9525    6.3041    0.9947 O   0  0  0  0  0  0  0  0  0  0  0  0
  -11.6856    6.1373   -1.2024 N   0  0  0  0  0  0  0  0  0  0  0  0
  -11.2764    5.7507   -2.5233 C   0  0  0  0  0  0  0  0  0  0  0  0
   -9.8306    4.9700   -2.9151 S   0  0  0  0  0  0  0  0  0  0  0  0
  -10.0682    5.0191   -4.5787 C   0  0  0  0  0  0  0  0  0  0  0  0
  -11.2895    5.6264   -4.8540 C   0  0  0  0  0  0  0  0  0  0  0  0
  -11.9553    6.0707   -3.6981 C   0  0  0  0  0  0  0  0  0  0  0  0
  -13.2102    6.7791   -3.7229 C   0  0  0  0  0  0  0  0  0  0  0  0
  -14.2180    7.3477   -3.7430 N   0  0  0  0  0  0  0  0  0  0  0  0
  -11.7565    5.8683   -6.2657 C   0  0  0  0  0  0  0  0  0  0  0  0
  -11.0259    4.9568   -7.2680 C   0  0  0  0  0  0  0  0  0  0  0  0
   -9.5011    4.9509   -7.0159 C   0  0  0  0  0  0  0  0  0  0  0  0
   -8.7772    4.1372   -8.0933 C   0  0  0  0  0  0  0  0  0  0  0  0
   -9.1824    4.3932   -5.6118 C   0  0  0  0  0  0  0  0  0  0  0  0
  -10.7929    4.6781    3.5666 N   0  0  0  0  0  0  0  0  0  0  0  0
   -9.8858    4.9052    4.5621 C   0  0  0  0  0  0  0  0  0  0  0  0
   -9.9907    5.9346    5.2806 O   0  0  0  0  0  0  0  0  0  0  0  0
   -8.8394    3.9898    4.7475 C   0  0  0  0  0  0  0  0  0  0  0  0
  1  3  4  0
  1 14  4  0
  1  2  1  0
  3  4  4  0
  4  5  4  0
  5  6  4  0
  5 22  1  0
  6  7  1  0
  6 14  4  0
  7  8  1  0
  8  9  4  0
  8 12  4  0
  9 10  4  0
 10 11  4  0
 11 12  4  0
 12 13  1  0
 13 14  1  0
 13 15  1  6
 15 16  4  0
 15 20  4  0
 16 17  4  0
 17 18  4  0
 17 21  1  0
 18 19  4  0
 19 20  4  0
 23 24  4  0
 24 25  4  0
 25 26  4  0
 26 27  4  0
 27 28  1  0
 28 29  1  0
 29 30  1  0
 30 31  2  0
 30 32  1  0
 32 33  1  0
 33 34  4  0
 34 35  4  0
 35 36  4  0
 36 37  4  0
 37 38  1  0
 38 39  3  0
 36 40  1  0
 40 41  1  0
 41 42  1  0
 42 43  1  0
 42 44  1  0
 27 45  4  0
 45 46  4  0
 46 47  2  0
 46 48  4  0
 48 25  4  0
 37 33  4  0
 44 35  1  0
  2 23  4  0
  2 48  4  0
M  END
$$$$

     RDKit          3D

 48 55  0  0  0  0  0  0  0  0999 V2000
   -7.6410    4.9930    6.8080 C   0  0  0  0  0  0  0  0  0  1  0  0
   -7.7310    4.0530    5.7140 C   0  0  0  0  0  0  0  0  0  2  0  0
   -6.4520    5.6300    6.8680 N   0  0  0  0  0  0  0  0  0  0  0  0
   -6.2260    6.5240    7.8670 N   0  0  0  0  0  0  0  0  0  0  0  0
   -7.1930    6.7500    8.7820 C   0  0  0  0  0  0  0  0  0  0  0  0
   -8.4240    6.1170    8.7580 C   0  0  0  0  0  0  0  0  0  0  0  0
   -9.3950    6.3570    9.7450 N   0  0  0  0  0  0  0  0  0  0  0  0
  -10.5620    5.6840    9.7600 C   0  0  0  0  0  0  0  0  0  0  0  0
  -11.5770    5.6820   10.5960 N   0  0  0  0  0  0  0  0  0  0  0  0
  -12.4690    4.7490   10.1080 N   0  0  0  0  0  0  0  0  0  0  0  0
  -12.0160    4.1880    8.9920 N   0  0  0  0  0  0  0  0  0  0  0  0
  -10.8400    4.7900    8.7610 N   0  0  0  0  0  0  0  0  0  0  0  0
   -9.9950    4.4790    7.6090 C   0  0  0  0  0  0  0  0  0  0  0  0
   -8.6630    5.2070    7.7200 C   0  0  0  0  0  0  0  0  0  0  0  0
  -10.7490    4.8610    6.3730 C   0  0  0  0  0  0  0  0  0  0  0  0
  -11.0350    6.2020    6.1170 C   0  0  0  0  0  0  0  0  0  0  0  0
  -11.7370    6.5580    4.9650 C   0  0  0  0  0  0  0  0  0  0  0  0
  -12.1550    5.5730    4.0710 C   0  0  0  0  0  0  0  0  0  0  0  0
  -11.8700    4.2310    4.3270 C   0  0  0  0  0  0  0  0  0  0  0  0
  -11.1660    3.8760    5.4790 C   0  0  0  0  0  0  0  0  0  0  0  0
  -12.0160    7.8660    4.7150 O   0  0  0  0  0  0  0  0  0  0  0  0
   -6.8990    7.6510    9.7710 O   0  0  0  0  0  0  0  0  0  0  0  0
   -6.8848    2.9520    5.4968 C   0  0  0  0  0  0  0  0  0  0  0  0
   -7.4340    1.9572    4.2462 S   0  0  0  0  0  0  0  0  0  0  0  0
   -8.8027    2.8680    3.9350 C   0  0  0  0  0  0  0  0  0  0  0  0
   -9.7428    2.6173    2.9952 N   0  0  0  0  0  0  0  0  0  0  0  0
  -10.7905    3.4780    2.8630 C   0  0  0  0  0  0  0  0  0  0  0  0
  -12.0569    3.1368    1.6397 S   0  0  0  0  0  0  0  0  0  0  0  0
  -11.1910    3.9890    0.2705 C   0  0  0  0  0  0  0  0  0  0  0  0
  -11.5409    5.4477    0.1794 C   0  0  0  0  0  0  0  0  0  0  0  0
  -12.2631    5.9906    1.0588 O   0  0  0  0  0  0  0  0  0  0  0  0
  -11.0227    6.2234   -0.9091 N   0  0  0  0  0  0  0  0  0  0  0  0
  -11.4531    7.5555   -1.2158 C   0  0  0  0  0  0  0  0  0  0  0  0
  -10.4161    8.7609   -1.7740 S   0  0  0  0  0  0  0  0  0  0  0  0
  -11.6137    9.9207   -1.9875 C   0  0  0  0  0  0  0  0  0  0  0  0
  -12.8534    9.3639   -1.6893 C   0  0  0  0  0  0  0  0  0  0  0  0
  -12.7691    8.0320   -1.2431 C   0  0  0  0  0  0  0  0  0  0  0  0
  -13.9301    7.2311   -0.9446 C   0  0  0  0  0  0  0  0  0  0  0  0
  -14.8653    6.5921   -0.7023 N   0  0  0  0  0  0  0  0  0  0  0  0
  -14.1252   10.1682   -1.7653 C   0  0  0  0  0  0  0  0  0  0  0  0
  -13.9556   11.4212   -2.6441 C   0  0  0  0  0  0  0  0  0  0  0  0
  -12.6509   12.1765   -2.3045 C   0  0  0  0  0  0  0  0  0  0  0  0
  -12.5581   13.4805   -3.1024 C   0  0  0  0  0  0  0  0  0  0  0  0
  -11.4197   11.2853   -2.5758 C   0  0  0  0  0  0  0  0  0  0  0  0
  -10.8838    4.5803    3.6675 N   0  0  0  0  0  0  0  0  0  0  0  0
   -9.9379    4.8496    4.6155 C   0  0  0  0  0  0  0  0  0  0  0  0
  -10.0315    5.8949    5.3122 O   0  0  0  0  0  0  0  0  0  0  0  0
   -8.8682    3.9570    4.7800 C   0  0  0  0  0  0  0  0  0  0  0  0
  1  3  4  0
  1 14  4  0
  1  2  1  0
  3  4  4  0
  4  5  4  0
  5  6  4  0
  5 22  1  0
  6  7  1  0
  6 14  4  0
  7  8  1  0
  8  9  4  0
  8 12  4  0
  9 10  4  0
 10 11  4  0
 11 12  4  0
 12 13  1  0
 13 14  1  0
 13 15  1  6
 15 16  4  0
 15 20  4  0
 16 17  4  0
 17 18  4  0
 17 21  1  0
 18 19  4  0
 19 20  4  0
 23 24  4  0
 24 25  4  0
 25 26  4  0
 26 27  4  0
 27 28  1  0
 28 29  1  0
 29 30  1  0
 30 31  2  0
 30 32  1  0
 32 33  1  0
 33 34  4  0
 34 35  4  0
 35 36  4  0
 36 37  4  0
 37 38  1  0
 38 39  3  0
 36 40  1  0
 40 41  1  0
 41 42  1  0
 42 43  1  0
 42 44  1  0
 27 45  4  0
 45 46  4  0
 46 47  2  0
 46 48  4  0
 48 25  4  0
 37 33  4  0
 44 35  1  0
  2 23  4  0
  2 48  4  0
M  END
$$$$

     RDKit          3D

 48 55  0  0  0  0  0  0  0  0999 V2000
   -7.6410    4.9930    6.8080 C   0  0  0  0  0  0  0  0  0  1  0  0
   -7.7310    4.0530    5.7140 C   0  0  0  0  0  0  0  0  0  2  0  0
   -6.4520    5.6300    6.8680 N   0  0  0  0  0  0  0  0  0  0  0  0
   -6.2260    6.5240    7.8670 N   0  0  0  0  0  0  0  0  0  0  0  0
   -7.1930    6.7500    8.7820 C   0  0  0  0  0  0  0  0  0  0  0  0
   -8.4240    6.1170    8.7580 C   0  0  0  0  0  0  0  0  0  0  0  0
   -9.3950    6.3570    9.7450 N   0  0  0  0  0  0  0  0  0  0  0  0
  -10.5620    5.6840    9.7600 C   0  0  0  0  0  0  0  0  0  0  0  0
  -11.5770    5.6820   10.5960 N   0  0  0  0  0  0  0  0  0  0  0  0
  -12.4690    4.7490   10.1080 N   0  0  0  0  0  0  0  0  0  0  0  0
  -12.0160    4.1880    8.9920 N   0  0  0  0  0  0  0  0  0  0  0  0
  -10.8400    4.7900    8.7610 N   0  0  0  0  0  0  0  0  0  0  0  0
   -9.9950    4.4790    7.6090 C   0  0  0  0  0  0  0  0  0  0  0  0
   -8.6630    5.2070    7.7200 C   0  0  0  0  0  0  0  0  0  0  0  0
  -10.7490    4.8610    6.3730 C   0  0  0  0  0  0  0  0  0  0  0  0
  -11.0350    6.2020    6.1170 C   0  0  0  0  0  0  0  0  0  0  0  0
  -11.7370    6.5580    4.9650 C   0  0  0  0  0  0  0  0  0  0  0  0
  -12.1550    5.5730    4.0710 C   0  0  0  0  0  0  0  0  0  0  0  0
  -11.8700    4.2310    4.3270 C   0  0  0  0  0  0  0  0  0  0  0  0
  -11.1660    3.8760    5.4790 C   0  0  0  0  0  0  0  0  0  0  0  0
  -12.0160    7.8660    4.7150 O   0  0  0  0  0  0  0  0  0  0  0  0
   -6.8990    7.6510    9.7710 O   0  0  0  0  0  0  0  0  0  0  0  0
   -6.8483    2.9915    5.4546 C   0  0  0  0  0  0  0  0  0  0  0  0
   -7.4029    1.9770    4.2214 S   0  0  0  0  0  0  0  0  0  0  0  0
   -8.8198    2.8293    3.9656 C   0  0  0  0  0  0  0  0  0  0  0  0
   -9.7780    2.5467    3.0534 N   0  0  0  0  0  0  0  0  0  0  0  0
  -10.8624    3.3632    2.9639 C   0  0  0  0  0  0  0  0  0  0  0  0
  -12.1611    2.9805    1.7903 S   0  0  0  0  0  0  0  0  0  0  0  0
  -13.1007    1.9773    2.9893 C   0  0  0  0  0  0  0  0  0  0  0  0
  -14.3378    1.4413    2.3423 C   0  0  0  0  0  0  0  0  0  0  0  0
  -14.2303    0.6187    1.3936 O   0  0  0  0  0  0  0  0  0  0  0  0
  -15.6310    1.8864    2.7743 N   0  0  0  0  0  0  0  0  0  0  0  0
  -16.8554    1.2750    2.3434 C   0  0  0  0  0  0  0  0  0  0  0  0
  -18.2590    2.1398    1.9882 S   0  0  0  0  0  0  0  0  0  0  0  0
  -19.1977    0.7855    1.6528 C   0  0  0  0  0  0  0  0  0  0  0  0
  -18.4459   -0.3556    1.8660 C   0  0  0  0  0  0  0  0  0  0  0  0
  -17.1255   -0.0943    2.2706 C   0  0  0  0  0  0  0  0  0  0  0  0
  -16.2081   -1.1218    2.6930 C   0  0  0  0  0  0  0  0  0  0  0  0
  -15.4705   -1.9443    3.0347 N   0  0  0  0  0  0  0  0  0  0  0  0
  -19.0860   -1.7002    1.7152 C   0  0  0  0  0  0  0  0  0  0  0  0
  -20.0591   -1.6479    0.5293 C   0  0  0  0  0  0  0  0  0  0  0  0
  -21.1454   -0.5359    0.6703 C   0  0  0  0  0  0  0  0  0  0  0  0
  -21.7095   -0.1885   -0.7193 C   0  0  0  0  0  0  0  0  0  0  0  0
  -20.6704    0.7622    1.4072 C   0  0  0  0  0  0  0  0  0  0  0  0
  -10.9648    4.4660    3.7648 N   0  0  0  0  0  0  0  0  0  0  0  0
  -10.0002    4.7704    4.6827 C   0  0  0  0  0  0  0  0  0  0  0  0
  -10.0998    5.8194    5.3718 O   0  0  0  0  0  0  0  0  0  0  0  0
   -8.8997    3.9131    4.8179 C   0  0  0  0  0  0  0  0  0  0  0  0
  1  3  4  0
  1 14  4  0
  1  2  1  0
  3  4  4  0
  4  5  4  0
  5  6  4  0
  5 22  1  0
  6  7  1  0
  6 14  4  0
  7  8  1  0
  8  9  4  0
  8 12  4  0
  9 10  4  0
 10 11  4  0
 11 12  4  0
 12 13  1  0
 13 14  1  0
 13 15  1  6
 15 16  4  0
 15 20  4  0
 16 17  4  0
 17 18  4  0
 17 21  1  0
 18 19  4  0
 19 20  4  0
 23 24  4  0
 24 25  4  0
 25 26  4  0
 26 27  4  0
 27 28  1  0
 28 29  1  0
 29 30  1  0
 30 31  2  0
 30 32  1  0
 32 33  1  0
 33 34  4  0
 34 35  4  0
 35 36  4  0
 36 37  4  0
 37 38  1  0
 38 39  3  0
 36 40  1  0
 40 41  1  0
 41 42  1  0
 42 43  1  0
 42 44  1  0
 27 45  4  0
 45 46  4  0
 46 47  2  0
 46 48  4  0
 48 25  4  0
 37 33  4  0
 44 35  1  0
  2 23  4  0
  2 48  4  0
M  END
$$$$

     RDKit          3D

 30 34  0  0  0  0  0  0  0  0999 V2000
   -7.6410    4.9930    6.8080 C   0  0  0  0  0  0  0  0  0  1  0  0
   -7.7310    4.0530    5.7140 C   0  0  0  0  0  0  0  0  0  2  0  0
   -6.4520    5.6300    6.8680 N   0  0  0  0  0  0  0  0  0  0  0  0
   -6.2260    6.5240    7.8670 N   0  0  0  0  0  0  0  0  0  0  0  0
   -7.1930    6.7500    8.7820 C   0  0  0  0  0  0  0  0  0  0  0  0
   -8.4240    6.1170    8.7580 C   0  0  0  0  0  0  0  0  0  0  0  0
   -9.3950    6.3570    9.7450 N   0  0  0  0  0  0  0  0  0  0  0  0
  -10.5620    5.6840    9.7600 C   0  0  0  0  0  0  0  0  0  0  0  0
  -11.5770    5.6820   10.5960 N   0  0  0  0  0  0  0  0  0  0  0  0
  -12.4690    4.7490   10.1080 N   0  0  0  0  0  0  0  0  0  0  0  0
  -12.0160    4.1880    8.9920 N   0  0  0  0  0  0  0  0  0  0  0  0
  -10.8400    4.7900    8.7610 N   0  0  0  0  0  0  0  0  0  0  0  0
   -9.9950    4.4790    7.6090 C   0  0  0  0  0  0  0  0  0  0  0  0
   -8.6630    5.2070    7.7200 C   0  0  0  0  0  0  0  0  0  0  0  0
  -10.7490    4.8610    6.3730 C   0  0  0  0  0  0  0  0  0  0  0  0
  -11.0350    6.2020    6.1170 C   0  0  0  0  0  0  0  0  0  0  0  0
  -11.7370    6.5580    4.9650 C   0  0  0  0  0  0  0  0  0  0  0  0
  -12.1550    5.5730    4.0710 C   0  0  0  0  0  0  0  0  0  0  0  0
  -11.8700    4.2310    4.3270 C   0  0  0  0  0  0  0  0  0  0  0  0
  -11.1660    3.8760    5.4790 C   0  0  0  0  0  0  0  0  0  0  0  0
  -12.0160    7.8660    4.7150 O   0  0  0  0  0  0  0  0  0  0  0  0
   -6.8990    7.6510    9.7710 O   0  0  0  0  0  0  0  0  0  0  0  0
   -6.9883    2.8500    5.5749 C   0  0  0  0  0  0  0  0  0  0  0  0
   -5.6855    2.5345    6.7180 Cl  0  0  0  0  0  0  0  0  0  0  0  0
   -7.2157    1.9145    4.5596 C   0  0  0  0  0  0  0  0  0  0  0  0
   -8.2604    2.0975    3.6518 C   0  0  0  0  0  0  0  0  0  0  0  0
   -8.5365    0.9185    2.3826 Cl  0  0  0  0  0  0  0  0  0  0  0  0
   -9.0849    3.2195    3.7540 C   0  0  0  0  0  0  0  0  0  0  0  0
   -8.8719    4.1650    4.7632 C   0  0  0  0  0  0  0  0  0  0  0  0
   -9.9131    5.5853    4.8016 Cl  0  0  0  0  0  0  0  0  0  0  0  0
  1  3  4  0
  1 14  4  0
  1  2  1  0
  3  4  4  0
  4  5  4  0
  5  6  4  0
  5 22  1  0
  6  7  1  0
  6 14  4  0
  7  8  1  0
  8  9  4  0
  8 12  4  0
  9 10  4  0
 10 11  4  0
 11 12  4  0
 12 13  1  0
 13 14  1  0
 13 15  1  6
 15 16  4  0
 15 20  4  0
 16 17  4  0
 17 18  4  0
 17 21  1  0
 18 19  4  0
 19 20  4  0
 23 24  1  0
 23 25  4  0
 25 26  4  0
 26 27  1  0
 26 28  4  0
 28 29  4  0
 29 30  1  0
  2 23  4  0
  2 29  4  0
M  END
$$$$

     RDKit          3D

 30 34  0  0  0  0  0  0  0  0999 V2000
   -7.6410    4.9930    6.8080 C   0  0  0  0  0  0  0  0  0  1  0  0
   -7.7310    4.0530    5.7140 C   0  0  0  0  0  0  0  0  0  2  0  0
   -6.4520    5.6300    6.8680 N   0  0  0  0  0  0  0  0  0  0  0  0
   -6.2260    6.5240    7.8670 N   0  0  0  0  0  0  0  0  0  0  0  0
   -7.1930    6.7500    8.7820 C   0  0  0  0  0  0  0  0  0  0  0  0
   -8.4240    6.1170    8.7580 C   0  0  0  0  0  0  0  0  0  0  0  0
   -9.3950    6.3570    9.7450 N   0  0  0  0  0  0  0  0  0  0  0  0
  -10.5620    5.6840    9.7600 C   0  0  0  0  0  0  0  0  0  0  0  0
  -11.5770    5.6820   10.5960 N   0  0  0  0  0  0  0  0  0  0  0  0
  -12.4690    4.7490   10.1080 N   0  0  0  0  0  0  0  0  0  0  0  0
  -12.0160    4.1880    8.9920 N   0  0  0  0  0  0  0  0  0  0  0  0
  -10.8400    4.7900    8.7610 N   0  0  0  0  0  0  0  0  0  0  0  0
   -9.9950    4.4790    7.6090 C   0  0  0  0  0  0  0  0  0  0  0  0
   -8.6630    5.2070    7.7200 C   0  0  0  0  0  0  0  0  0  0  0  0
  -10.7490    4.8610    6.3730 C   0  0  0  0  0  0  0  0  0  0  0  0
  -11.0350    6.2020    6.1170 C   0  0  0  0  0  0  0  0  0  0  0  0
  -11.7370    6.5580    4.9650 C   0  0  0  0  0  0  0  0  0  0  0  0
  -12.1550    5.5730    4.0710 C   0  0  0  0  0  0  0  0  0  0  0  0
  -11.8700    4.2310    4.3270 C   0  0  0  0  0  0  0  0  0  0  0  0
  -11.1660    3.8760    5.4790 C   0  0  0  0  0  0  0  0  0  0  0  0
  -12.0160    7.8660    4.7150 O   0  0  0  0  0  0  0  0  0  0  0  0
   -6.8990    7.6510    9.7710 O   0  0  0  0  0  0  0  0  0  0  0  0
   -8.8749    4.1622    4.7660 C   0  0  0  0  0  0  0  0  0  0  0  0
   -9.9205    5.5790    4.8080 Cl  0  0  0  0  0  0  0  0  0  0  0  0
   -9.0877    3.2165    3.7570 C   0  0  0  0  0  0  0  0  0  0  0  0
   -8.2605    2.0968    3.6522 C   0  0  0  0  0  0  0  0  0  0  0  0
   -8.5365    0.9175    2.3832 Cl  0  0  0  0  0  0  0  0  0  0  0  0
   -7.2132    1.9161    4.5575 C   0  0  0  0  0  0  0  0  0  0  0  0
   -6.9858    2.8518    5.5726 C   0  0  0  0  0  0  0  0  0  0  0  0
   -5.6802    2.5386    6.7132 Cl  0  0  0  0  0  0  0  0  0  0  0  0
  1  3  4  0
  1 14  4  0
  1  2  1  0
  3  4  4  0
  4  5  4  0
  5  6  4  0
  5 22  1  0
  6  7  1  0
  6 14  4  0
  7  8  1  0
  8  9  4  0
  8 12  4  0
  9 10  4  0
 10 11  4  0
 11 12  4  0
 12 13  1  0
 13 14  1  0
 13 15  1  6
 15 16  4  0
 15 20  4  0
 16 17  4  0
 17 18  4  0
 17 21  1  0
 18 19  4  0
 19 20  4  0
 23 24  1  0
 23 25  4  0
 25 26  4  0
 26 27  1  0
 26 28  4  0
 28 29  4  0
 29 30  1  0
  2 23  4  0
  2 29  4  0
M  END
$$$$

     RDKit          3D

 30 34  0  0  0  0  0  0  0  0999 V2000
   -7.6410    4.9930    6.8080 C   0  0  0  0  0  0  0  0  0  1  0  0
   -7.7310    4.0530    5.7140 C   0  0  0  0  0  0  0  0  0  2  0  0
   -6.4520    5.6300    6.8680 N   0  0  0  0  0  0  0  0  0  0  0  0
   -6.2260    6.5240    7.8670 N   0  0  0  0  0  0  0  0  0  0  0  0
   -7.1930    6.7500    8.7820 C   0  0  0  0  0  0  0  0  0  0  0  0
   -8.4240    6.1170    8.7580 C   0  0  0  0  0  0  0  0  0  0  0  0
   -9.3950    6.3570    9.7450 N   0  0  0  0  0  0  0  0  0  0  0  0
  -10.5620    5.6840    9.7600 C   0  0  0  0  0  0  0  0  0  0  0  0
  -11.5770    5.6820   10.5960 N   0  0  0  0  0  0  0  0  0  0  0  0
  -12.4690    4.7490   10.1080 N   0  0  0  0  0  0  0  0  0  0  0  0
  -12.0160    4.1880    8.9920 N   0  0  0  0  0  0  0  0  0  0  0  0
  -10.8400    4.7900    8.7610 N   0  0  0  0  0  0  0  0  0  0  0  0
   -9.9950    4.4790    7.6090 C   0  0  0  0  0  0  0  0  0  0  0  0
   -8.6630    5.2070    7.7200 C   0  0  0  0  0  0  0  0  0  0  0  0
  -10.7490    4.8610    6.3730 C   0  0  0  0  0  0  0  0  0  0  0  0
  -11.0350    6.2020    6.1170 C   0  0  0  0  0  0  0  0  0  0  0  0
  -11.7370    6.5580    4.9650 C   0  0  0  0  0  0  0  0  0  0  0  0
  -12.1550    5.5730    4.0710 C   0  0  0  0  0  0  0  0  0  0  0  0
  -11.8700    4.2310    4.3270 C   0  0  0  0  0  0  0  0  0  0  0  0
  -11.1660    3.8760    5.4790 C   0  0  0  0  0  0  0  0  0  0  0  0
  -12.0160    7.8660    4.7150 O   0  0  0  0  0  0  0  0  0  0  0  0
   -6.8990    7.6510    9.7710 O   0  0  0  0  0  0  0  0  0  0  0  0
   -8.8937    4.1456    4.7693 C   0  0  0  0  0  0  0  0  0  0  0  0
   -9.8147    5.3363    4.8351 C   0  0  0  0  0  0  0  0  0  0  0  0
   -9.1112    3.1700    3.7823 C   0  0  0  0  0  0  0  0  0  0  0  0
   -8.2678    2.0584    3.6804 C   0  0  0  0  0  0  0  0  0  0  0  0
   -8.4767    1.0970    2.6940 O   0  0  0  0  0  0  0  0  0  0  0  0
   -7.2069    1.9072    4.5735 C   0  0  0  0  0  0  0  0  0  0  0  0
   -6.9846    2.8564    5.5785 C   0  0  0  0  0  0  0  0  0  0  0  0
   -5.9348    2.6774    6.4802 O   0  0  0  0  0  0  0  0  0  0  0  0
  1  3  4  0
  1 14  4  0
  1  2  1  0
  3  4  4  0
  4  5  4  0
  5  6  4  0
  5 22  1  0
  6  7  1  0
  6 14  4  0
  7  8  1  0
  8  9  4  0
  8 12  4  0
  9 10  4  0
 10 11  4  0
 11 12  4  0
 12 13  1  0
 13 14  1  0
 13 15  1  6
 15 16  4  0
 15 20  4  0
 16 17  4  0
 17 18  4  0
 17 21  1  0
 18 19  4  0
 19 20  4  0
 23 24  1  0
 23 25  4  0
 25 26  4  0
 26 27  1  0
 26 28  4  0
 28 29  4  0
 29 30  1  0
  2 23  4  0
  2 29  4  0
M  END
$$$$

     RDKit          3D

 30 34  0  0  0  0  0  0  0  0999 V2000
   -7.6410    4.9930    6.8080 C   0  0  0  0  0  0  0  0  0  1  0  0
   -7.7310    4.0530    5.7140 C   0  0  0  0  0  0  0  0  0  2  0  0
   -6.4520    5.6300    6.8680 N   0  0  0  0  0  0  0  0  0  0  0  0
   -6.2260    6.5240    7.8670 N   0  0  0  0  0  0  0  0  0  0  0  0
   -7.1930    6.7500    8.7820 C   0  0  0  0  0  0  0  0  0  0  0  0
   -8.4240    6.1170    8.7580 C   0  0  0  0  0  0  0  0  0  0  0  0
   -9.3950    6.3570    9.7450 N   0  0  0  0  0  0  0  0  0  0  0  0
  -10.5620    5.6840    9.7600 C   0  0  0  0  0  0  0  0  0  0  0  0
  -11.5770    5.6820   10.5960 N   0  0  0  0  0  0  0  0  0  0  0  0
  -12.4690    4.7490   10.1080 N   0  0  0  0  0  0  0  0  0  0  0  0
  -12.0160    4.1880    8.9920 N   0  0  0  0  0  0  0  0  0  0  0  0
  -10.8400    4.7900    8.7610 N   0  0  0  0  0  0  0  0  0  0  0  0
   -9.9950    4.4790    7.6090 C   0  0  0  0  0  0  0  0  0  0  0  0
   -8.6630    5.2070    7.7200 C   0  0  0  0  0  0  0  0  0  0  0  0
  -10.7490    4.8610    6.3730 C   0  0  0  0  0  0  0  0  0  0  0  0
  -11.0350    6.2020    6.1170 C   0  0  0  0  0  0  0  0  0  0  0  0
  -11.7370    6.5580    4.9650 C   0  0  0  0  0  0  0  0  0  0  0  0
  -12.1550    5.5730    4.0710 C   0  0  0  0  0  0  0  0  0  0  0  0
  -11.8700    4.2310    4.3270 C   0  0  0  0  0  0  0  0  0  0  0  0
  -11.1660    3.8760    5.4790 C   0  0  0  0  0  0  0  0  0  0  0  0
  -12.0160    7.8660    4.7150 O   0  0  0  0  0  0  0  0  0  0  0  0
   -6.8990    7.6510    9.7710 O   0  0  0  0  0  0  0  0  0  0  0  0
   -7.0657    2.7897    5.5912 C   0  0  0  0  0  0  0  0  0  0  0  0
   -5.9858    2.4482    6.5855 C   0  0  0  0  0  0  0  0  0  0  0  0
   -7.3017    1.9057    4.5258 C   0  0  0  0  0  0  0  0  0  0  0  0
   -8.3040    2.1677    3.5900 C   0  0  0  0  0  0  0  0  0  0  0  0
   -8.5229    1.2685    2.5485 O   0  0  0  0  0  0  0  0  0  0  0  0
   -9.0793    3.3252    3.7059 C   0  0  0  0  0  0  0  0  0  0  0  0
   -8.8445    4.2334    4.7457 C   0  0  0  0  0  0  0  0  0  0  0  0
   -9.6118    5.3951    4.8390 O   0  0  0  0  0  0  0  0  0  0  0  0
  1  3  4  0
  1 14  4  0
  1  2  1  0
  3  4  4  0
  4  5  4  0
  5  6  4  0
  5 22  1  0
  6  7  1  0
  6 14  4  0
  7  8  1  0
  8  9  4  0
  8 12  4  0
  9 10  4  0
 10 11  4  0
 11 12  4  0
 12 13  1  0
 13 14  1  0
 13 15  1  6
 15 16  4  0
 15 20  4  0
 16 17  4  0
 17 18  4  0
 17 21  1  0
 18 19  4  0
 19 20  4  0
 23 24  1  0
 23 25  4  0
 25 26  4  0
 26 27  1  0
 26 28  4  0
 28 29  4  0
 29 30  1  0
  2 23  4  0
  2 29  4  0
M  END
$$$$

     RDKit          3D

 43 49  0  0  0  0  0  0  0  0999 V2000
   -7.6410    4.9930    6.8080 C   0  0  0  0  0  0  0  0  0  1  0  0
   -7.7310    4.0530    5.7140 C   0  0  0  0  0  0  0  0  0  2  0  0
   -6.4520    5.6300    6.8680 N   0  0  0  0  0  0  0  0  0  0  0  0
   -6.2260    6.5240    7.8670 N   0  0  0  0  0  0  0  0  0  0  0  0
   -7.1930    6.7500    8.7820 C   0  0  0  0  0  0  0  0  0  0  0  0
   -8.4240    6.1170    8.7580 C   0  0  0  0  0  0  0  0  0  0  0  0
   -9.3950    6.3570    9.7450 N   0  0  0  0  0  0  0  0  0  0  0  0
  -10.5620    5.6840    9.7600 C   0  0  0  0  0  0  0  0  0  0  0  0
  -11.5770    5.6820   10.5960 N   0  0  0  0  0  0  0  0  0  0  0  0
  -12.4690    4.7490   10.1080 N   0  0  0  0  0  0  0  0  0  0  0  0
  -12.0160    4.1880    8.9920 N   0  0  0  0  0  0  0  0  0  0  0  0
  -10.8400    4.7900    8.7610 N   0  0  0  0  0  0  0  0  0  0  0  0
   -9.9950    4.4790    7.6090 C   0  0  0  0  0  0  0  0  0  0  0  0
   -8.6630    5.2070    7.7200 C   0  0  0  0  0  0  0  0  0  0  0  0
  -10.7490    4.8610    6.3730 C   0  0  0  0  0  0  0  0  0  0  0  0
  -11.0350    6.2020    6.1170 C   0  0  0  0  0  0  0  0  0  0  0  0
  -11.7370    6.5580    4.9650 C   0  0  0  0  0  0  0  0  0  0  0  0
  -12.1550    5.5730    4.0710 C   0  0  0  0  0  0  0  0  0  0  0  0
  -11.8700    4.2310    4.3270 C   0  0  0  0  0  0  0  0  0  0  0  0
  -11.1660    3.8760    5.4790 C   0  0  0  0  0  0  0  0  0  0  0  0
  -12.0160    7.8660    4.7150 O   0  0  0  0  0  0  0  0  0  0  0  0
   -6.8990    7.6510    9.7710 O   0  0  0  0  0  0  0  0  0  0  0  0
   -6.8591    3.0379    5.4550 N   0  0  0  0  0  0  0  0  0  0  0  0
   -7.3511    2.4004    4.3785 C   0  0  0  0  0  0  0  0  0  0  0  0
   -6.7857    1.3222    3.7011 C   0  0  0  0  0  0  0  0  0  0  0  0
   -7.4631    0.8316    2.5692 C   0  0  0  0  0  0  0  0  0  0  0  0
   -8.6723    1.4281    2.1450 C   0  0  0  0  0  0  0  0  0  0  0  0
   -9.2153    2.5183    2.8503 C   0  0  0  0  0  0  0  0  0  0  0  0
   -8.5215    2.9738    3.9751 C   0  0  0  0  0  0  0  0  0  0  0  0
   -8.8162    3.9972    4.7971 N   0  0  0  0  0  0  0  0  0  0  0  0
   -9.8912    4.9832    4.6214 C   0  0  0  0  0  0  0  0  0  0  0  0
   -9.5345    6.0135    3.5414 C   0  0  0  0  0  0  0  0  0  0  0  0
   -8.3640    6.9140    3.9635 C   0  0  0  0  0  0  0  0  0  0  0  0
   -8.0666    7.9828    2.9130 C   0  0  0  0  0  0  0  0  0  0  0  0
   -9.1814    8.8639    2.7853 O   0  0  0  0  0  0  0  0  0  0  0  0
   -9.2486    9.9436    1.8900 C   0  0  0  0  0  0  0  0  0  0  0  0
   -8.1622   10.2940    1.0632 C   0  0  0  0  0  0  0  0  0  0  0  0
   -8.2648   11.3686    0.1678 C   0  0  0  0  0  0  0  0  0  0  0  0
   -7.0915   11.7609   -0.6811 C   0  0  0  0  0  0  0  0  0  0  0  0
   -9.4503   12.1149    0.1175 C   0  0  0  0  0  0  0  0  0  0  0  0
  -10.5310   11.7764    0.9340 C   0  0  0  0  0  0  0  0  0  0  0  0
  -10.4398   10.6917    1.8202 C   0  0  0  0  0  0  0  0  0  0  0  0
  -11.6104   10.3304    2.6931 C   0  0  0  0  0  0  0  0  0  0  0  0
  1  3  4  0
  1 14  4  0
  1  2  1  0
  3  4  4  0
  4  5  4  0
  5  6  4  0
  5 22  1  0
  6  7  1  0
  6 14  4  0
  7  8  1  0
  8  9  4  0
  8 12  4  0
  9 10  4  0
 10 11  4  0
 11 12  4  0
 12 13  1  0
 13 14  1  0
 13 15  1  6
 15 16  4  0
 15 20  4  0
 16 17  4  0
 17 18  4  0
 17 21  1  0
 18 19  4  0
 19 20  4  0
 23 24  4  0
 24 25  4  0
 25 26  4  0
 26 27  4  0
 27 28  4  0
 28 29  4  0
 29 30  4  0
 30 31  1  0
 31 32  1  0
 32 33  1  0
 33 34  1  0
 34 35  1  0
 35 36  1  0
 36 37  4  0
 37 38  4  0
 38 39  1  0
 38 40  4  0
 40 41  4  0
 41 42  4  0
 42 43  1  0
 42 36  4  0
 29 24  4  0
  2 23  4  0
  2 30  4  0
M  END
$$$$

     RDKit          3D

 43 49  0  0  0  0  0  0  0  0999 V2000
   -7.6410    4.9930    6.8080 C   0  0  0  0  0  0  0  0  0  1  0  0
   -7.7310    4.0530    5.7140 C   0  0  0  0  0  0  0  0  0  2  0  0
   -6.4520    5.6300    6.8680 N   0  0  0  0  0  0  0  0  0  0  0  0
   -6.2260    6.5240    7.8670 N   0  0  0  0  0  0  0  0  0  0  0  0
   -7.1930    6.7500    8.7820 C   0  0  0  0  0  0  0  0  0  0  0  0
   -8.4240    6.1170    8.7580 C   0  0  0  0  0  0  0  0  0  0  0  0
   -9.3950    6.3570    9.7450 N   0  0  0  0  0  0  0  0  0  0  0  0
  -10.5620    5.6840    9.7600 C   0  0  0  0  0  0  0  0  0  0  0  0
  -11.5770    5.6820   10.5960 N   0  0  0  0  0  0  0  0  0  0  0  0
  -12.4690    4.7490   10.1080 N   0  0  0  0  0  0  0  0  0  0  0  0
  -12.0160    4.1880    8.9920 N   0  0  0  0  0  0  0  0  0  0  0  0
  -10.8400    4.7900    8.7610 N   0  0  0  0  0  0  0  0  0  0  0  0
   -9.9950    4.4790    7.6090 C   0  0  0  0  0  0  0  0  0  0  0  0
   -8.6630    5.2070    7.7200 C   0  0  0  0  0  0  0  0  0  0  0  0
  -10.7490    4.8610    6.3730 C   0  0  0  0  0  0  0  0  0  0  0  0
  -11.0350    6.2020    6.1170 C   0  0  0  0  0  0  0  0  0  0  0  0
  -11.7370    6.5580    4.9650 C   0  0  0  0  0  0  0  0  0  0  0  0
  -12.1550    5.5730    4.0710 C   0  0  0  0  0  0  0  0  0  0  0  0
  -11.8700    4.2310    4.3270 C   0  0  0  0  0  0  0  0  0  0  0  0
  -11.1660    3.8760    5.4790 C   0  0  0  0  0  0  0  0  0  0  0  0
  -12.0160    7.8660    4.7150 O   0  0  0  0  0  0  0  0  0  0  0  0
   -6.8990    7.6510    9.7710 O   0  0  0  0  0  0  0  0  0  0  0  0
   -6.8720    3.0243    5.4614 N   0  0  0  0  0  0  0  0  0  0  0  0
   -7.3768    2.3806    4.3954 C   0  0  0  0  0  0  0  0  0  0  0  0
   -6.8236    1.2939    3.7224 C   0  0  0  0  0  0  0  0  0  0  0  0
   -7.5110    0.8005    2.5970 C   0  0  0  0  0  0  0  0  0  0  0  0
   -8.7167    1.4050    2.1732 C   0  0  0  0  0  0  0  0  0  0  0  0
   -9.2460    2.5054    2.8735 C   0  0  0  0  0  0  0  0  0  0  0  0
   -8.5440    2.9611    3.9925 C   0  0  0  0  0  0  0  0  0  0  0  0
   -8.8239    3.9944    4.8064 N   0  0  0  0  0  0  0  0  0  0  0  0
   -9.8716    5.0046    4.6147 C   0  0  0  0  0  0  0  0  0  0  0  0
   -9.4691    5.9856    3.5030 C   0  0  0  0  0  0  0  0  0  0  0  0
  -10.3006    7.2779    3.5191 C   0  0  0  0  0  0  0  0  0  0  0  0
  -11.7933    7.0337    3.2918 C   0  0  0  0  0  0  0  0  0  0  0  0
  -12.4621    8.2889    3.1946 O   0  0  0  0  0  0  0  0  0  0  0  0
  -13.8503    8.4490    3.0463 C   0  0  0  0  0  0  0  0  0  0  0  0
  -14.7234    7.3457    2.9568 C   0  0  0  0  0  0  0  0  0  0  0  0
  -16.1079    7.5390    2.8296 C   0  0  0  0  0  0  0  0  0  0  0  0
  -17.0282    6.3611    2.7004 C   0  0  0  0  0  0  0  0  0  0  0  0
  -16.6187    8.8409    2.7536 C   0  0  0  0  0  0  0  0  0  0  0  0
  -15.7615    9.9392    2.8329 C   0  0  0  0  0  0  0  0  0  0  0  0
  -14.3792    9.7534    2.9881 C   0  0  0  0  0  0  0  0  0  0  0  0
  -13.4659   10.9450    3.0490 C   0  0  0  0  0  0  0  0  0  0  0  0
  1  3  4  0
  1 14  4  0
  1  2  1  0
  3  4  4  0
  4  5  4  0
  5  6  4  0
  5 22  1  0
  6  7  1  0
  6 14  4  0
  7  8  1  0
  8  9  4  0
  8 12  4  0
  9 10  4  0
 10 11  4  0
 11 12  4  0
 12 13  1  0
 13 14  1  0
 13 15  1  6
 15 16  4  0
 15 20  4  0
 16 17  4  0
 17 18  4  0
 17 21  1  0
 18 19  4  0
 19 20  4  0
 23 24  4  0
 24 25  4  0
 25 26  4  0
 26 27  4  0
 27 28  4  0
 28 29  4  0
 29 30  4  0
 30 31  1  0
 31 32  1  0
 32 33  1  0
 33 34  1  0
 34 35  1  0
 35 36  1  0
 36 37  4  0
 37 38  4  0
 38 39  1  0
 38 40  4  0
 40 41  4  0
 41 42  4  0
 42 43  1  0
 42 36  4  0
 29 24  4  0
  2 23  4  0
  2 30  4  0
M  END
$$$$

     RDKit          3D

 43 49  0  0  0  0  0  0  0  0999 V2000
   -7.6410    4.9930    6.8080 C   0  0  0  0  0  0  0  0  0  1  0  0
   -7.7310    4.0530    5.7140 C   0  0  0  0  0  0  0  0  0  2  0  0
   -6.4520    5.6300    6.8680 N   0  0  0  0  0  0  0  0  0  0  0  0
   -6.2260    6.5240    7.8670 N   0  0  0  0  0  0  0  0  0  0  0  0
   -7.1930    6.7500    8.7820 C   0  0  0  0  0  0  0  0  0  0  0  0
   -8.4240    6.1170    8.7580 C   0  0  0  0  0  0  0  0  0  0  0  0
   -9.3950    6.3570    9.7450 N   0  0  0  0  0  0  0  0  0  0  0  0
  -10.5620    5.6840    9.7600 C   0  0  0  0  0  0  0  0  0  0  0  0
  -11.5770    5.6820   10.5960 N   0  0  0  0  0  0  0  0  0  0  0  0
  -12.4690    4.7490   10.1080 N   0  0  0  0  0  0  0  0  0  0  0  0
  -12.0160    4.1880    8.9920 N   0  0  0  0  0  0  0  0  0  0  0  0
  -10.8400    4.7900    8.7610 N   0  0  0  0  0  0  0  0  0  0  0  0
   -9.9950    4.4790    7.6090 C   0  0  0  0  0  0  0  0  0  0  0  0
   -8.6630    5.2070    7.7200 C   0  0  0  0  0  0  0  0  0  0  0  0
  -10.7490    4.8610    6.3730 C   0  0  0  0  0  0  0  0  0  0  0  0
  -11.0350    6.2020    6.1170 C   0  0  0  0  0  0  0  0  0  0  0  0
  -11.7370    6.5580    4.9650 C   0  0  0  0  0  0  0  0  0  0  0  0
  -12.1550    5.5730    4.0710 C   0  0  0  0  0  0  0  0  0  0  0  0
  -11.8700    4.2310    4.3270 C   0  0  0  0  0  0  0  0  0  0  0  0
  -11.1660    3.8760    5.4790 C   0  0  0  0  0  0  0  0  0  0  0  0
  -12.0160    7.8660    4.7150 O   0  0  0  0  0  0  0  0  0  0  0  0
   -6.8990    7.6510    9.7710 O   0  0  0  0  0  0  0  0  0  0  0  0
   -6.8415    3.0642    5.4302 N   0  0  0  0  0  0  0  0  0  0  0  0
   -7.3891    2.3420    4.4406 C   0  0  0  0  0  0  0  0  0  0  0  0
   -6.8394    1.2357    3.7977 C   0  0  0  0  0  0  0  0  0  0  0  0
   -7.5982    0.6194    2.7857 C   0  0  0  0  0  0  0  0  0  0  0  0
   -8.8873    1.1022    2.4661 C   0  0  0  0  0  0  0  0  0  0  0  0
   -9.4160    2.2224    3.1354 C   0  0  0  0  0  0  0  0  0  0  0  0
   -8.6259    2.8250    4.1199 C   0  0  0  0  0  0  0  0  0  0  0  0
   -8.8833    3.9046    4.8846 N   0  0  0  0  0  0  0  0  0  0  0  0
  -10.0462    4.8066    4.8186 C   0  0  0  0  0  0  0  0  0  0  0  0
  -10.2686    5.3584    3.3932 C   0  0  0  0  0  0  0  0  0  0  0  0
  -10.5250    6.8730    3.3942 C   0  0  0  0  0  0  0  0  0  0  0  0
  -10.9874    7.3637    2.0227 C   0  0  0  0  0  0  0  0  0  0  0  0
  -10.8941    8.7830    1.9780 O   0  0  0  0  0  0  0  0  0  0  0  0
  -11.2971    9.5767    0.8907 C   0  0  0  0  0  0  0  0  0  0  0  0
  -11.8963    9.0191   -0.2588 C   0  0  0  0  0  0  0  0  0  0  0  0
  -12.3168    9.8404   -1.3158 C   0  0  0  0  0  0  0  0  0  0  0  0
  -12.9356    9.2398   -2.5454 C   0  0  0  0  0  0  0  0  0  0  0  0
  -12.0948   11.2230   -1.2444 C   0  0  0  0  0  0  0  0  0  0  0  0
  -11.4855   11.7841   -0.1182 C   0  0  0  0  0  0  0  0  0  0  0  0
  -11.0955   10.9700    0.9577 C   0  0  0  0  0  0  0  0  0  0  0  0
  -10.4191   11.5795    2.1533 C   0  0  0  0  0  0  0  0  0  0  0  0
  1  3  4  0
  1 14  4  0
  1  2  1  0
  3  4  4  0
  4  5  4  0
  5  6  4  0
  5 22  1  0
  6  7  1  0
  6 14  4  0
  7  8  1  0
  8  9  4  0
  8 12  4  0
  9 10  4  0
 10 11  4  0
 11 12  4  0
 12 13  1  0
 13 14  1  0
 13 15  1  6
 15 16  4  0
 15 20  4  0
 16 17  4  0
 17 18  4  0
 17 21  1  0
 18 19  4  0
 19 20  4  0
 23 24  4  0
 24 25  4  0
 25 26  4  0
 26 27  4  0
 27 28  4  0
 28 29  4  0
 29 30  4  0
 30 31  1  0
 31 32  1  0
 32 33  1  0
 33 34  1  0
 34 35  1  0
 35 36  1  0
 36 37  4  0
 37 38  4  0
 38 39  1  0
 38 40  4  0
 40 41  4  0
 41 42  4  0
 42 43  1  0
 42 36  4  0
 29 24  4  0
  2 23  4  0
  2 30  4  0
M  END
$$$$

     RDKit          3D

 43 49  0  0  0  0  0  0  0  0999 V2000
   -7.6410    4.9930    6.8080 C   0  0  0  0  0  0  0  0  0  1  0  0
   -7.7310    4.0530    5.7140 C   0  0  0  0  0  0  0  0  0  2  0  0
   -6.4520    5.6300    6.8680 N   0  0  0  0  0  0  0  0  0  0  0  0
   -6.2260    6.5240    7.8670 N   0  0  0  0  0  0  0  0  0  0  0  0
   -7.1930    6.7500    8.7820 C   0  0  0  0  0  0  0  0  0  0  0  0
   -8.4240    6.1170    8.7580 C   0  0  0  0  0  0  0  0  0  0  0  0
   -9.3950    6.3570    9.7450 N   0  0  0  0  0  0  0  0  0  0  0  0
  -10.5620    5.6840    9.7600 C   0  0  0  0  0  0  0  0  0  0  0  0
  -11.5770    5.6820   10.5960 N   0  0  0  0  0  0  0  0  0  0  0  0
  -12.4690    4.7490   10.1080 N   0  0  0  0  0  0  0  0  0  0  0  0
  -12.0160    4.1880    8.9920 N   0  0  0  0  0  0  0  0  0  0  0  0
  -10.8400    4.7900    8.7610 N   0  0  0  0  0  0  0  0  0  0  0  0
   -9.9950    4.4790    7.6090 C   0  0  0  0  0  0  0  0  0  0  0  0
   -8.6630    5.2070    7.7200 C   0  0  0  0  0  0  0  0  0  0  0  0
  -10.7490    4.8610    6.3730 C   0  0  0  0  0  0  0  0  0  0  0  0
  -11.0350    6.2020    6.1170 C   0  0  0  0  0  0  0  0  0  0  0  0
  -11.7370    6.5580    4.9650 C   0  0  0  0  0  0  0  0  0  0  0  0
  -12.1550    5.5730    4.0710 C   0  0  0  0  0  0  0  0  0  0  0  0
  -11.8700    4.2310    4.3270 C   0  0  0  0  0  0  0  0  0  0  0  0
  -11.1660    3.8760    5.4790 C   0  0  0  0  0  0  0  0  0  0  0  0
  -12.0160    7.8660    4.7150 O   0  0  0  0  0  0  0  0  0  0  0  0
   -6.8990    7.6510    9.7710 O   0  0  0  0  0  0  0  0  0  0  0  0
   -6.8474    3.0514    5.4386 N   0  0  0  0  0  0  0  0  0  0  0  0
   -7.3140    2.4494    4.3306 C   0  0  0  0  0  0  0  0  0  0  0  0
   -6.7174    1.4093    3.6164 C   0  0  0  0  0  0  0  0  0  0  0  0
   -7.3597    0.9668    2.4457 C   0  0  0  0  0  0  0  0  0  0  0  0
   -8.5558    1.5810    2.0097 C   0  0  0  0  0  0  0  0  0  0  0  0
   -9.1216    2.6407    2.7435 C   0  0  0  0  0  0  0  0  0  0  0  0
   -8.4759    3.0365    3.9192 C   0  0  0  0  0  0  0  0  0  0  0  0
   -8.8009    4.0193    4.7788 N   0  0  0  0  0  0  0  0  0  0  0  0
   -9.8517    5.0263    4.6006 C   0  0  0  0  0  0  0  0  0  0  0  0
   -9.2924    6.2528    3.8723 C   0  0  0  0  0  0  0  0  0  0  0  0
  -10.3968    7.2477    3.4756 C   0  0  0  0  0  0  0  0  0  0  0  0
  -11.1056    6.8573    2.1687 C   0  0  0  0  0  0  0  0  0  0  0  0
  -10.2008    6.8658    1.0633 O   0  0  0  0  0  0  0  0  0  0  0  0
   -9.6260    8.0407    0.5688 C   0  0  0  0  0  0  0  0  0  0  0  0
   -8.2785    8.3044    0.8533 C   0  0  0  0  0  0  0  0  0  0  0  0
   -7.6691    9.4821    0.3978 C   0  0  0  0  0  0  0  0  0  0  0  0
   -6.2415    9.7804    0.7540 C   0  0  0  0  0  0  0  0  0  0  0  0
   -8.4267   10.4125   -0.3289 C   0  0  0  0  0  0  0  0  0  0  0  0
   -9.7634   10.1443   -0.6397 C   0  0  0  0  0  0  0  0  0  0  0  0
  -10.3694    8.9489   -0.2164 C   0  0  0  0  0  0  0  0  0  0  0  0
  -11.8082    8.6859   -0.5764 C   0  0  0  0  0  0  0  0  0  0  0  0
  1  3  4  0
  1 14  4  0
  1  2  1  0
  3  4  4  0
  4  5  4  0
  5  6  4  0
  5 22  1  0
  6  7  1  0
  6 14  4  0
  7  8  1  0
  8  9  4  0
  8 12  4  0
  9 10  4  0
 10 11  4  0
 11 12  4  0
 12 13  1  0
 13 14  1  0
 13 15  1  6
 15 16  4  0
 15 20  4  0
 16 17  4  0
 17 18  4  0
 17 21  1  0
 18 19  4  0
 19 20  4  0
 23 24  4  0
 24 25  4  0
 25 26  4  0
 26 27  4  0
 27 28  4  0
 28 29  4  0
 29 30  4  0
 30 31  1  0
 31 32  1  0
 32 33  1  0
 33 34  1  0
 34 35  1  0
 35 36  1  0
 36 37  4  0
 37 38  4  0
 38 39  1  0
 38 40  4  0
 40 41  4  0
 41 42  4  0
 42 43  1  0
 42 36  4  0
 29 24  4  0
  2 23  4  0
  2 30  4  0
M  END
$$$$

     RDKit          3D

 42 47  0  0  0  0  0  0  0  0999 V2000
   -7.6410    4.9930    6.8080 C   0  0  0  0  0  0  0  0  0  1  0  0
   -7.7310    4.0530    5.7140 C   0  0  0  0  0  0  0  0  0  2  0  0
   -6.4520    5.6300    6.8680 N   0  0  0  0  0  0  0  0  0  0  0  0
   -6.2260    6.5240    7.8670 N   0  0  0  0  0  0  0  0  0  0  0  0
   -7.1930    6.7500    8.7820 C   0  0  0  0  0  0  0  0  0  0  0  0
   -8.4240    6.1170    8.7580 C   0  0  0  0  0  0  0  0  0  0  0  0
   -9.3950    6.3570    9.7450 N   0  0  0  0  0  0  0  0  0  0  0  0
  -10.5620    5.6840    9.7600 C   0  0  0  0  0  0  0  0  0  0  0  0
  -11.5770    5.6820   10.5960 N   0  0  0  0  0  0  0  0  0  0  0  0
  -12.4690    4.7490   10.1080 N   0  0  0  0  0  0  0  0  0  0  0  0
  -12.0160    4.1880    8.9920 N   0  0  0  0  0  0  0  0  0  0  0  0
  -10.8400    4.7900    8.7610 N   0  0  0  0  0  0  0  0  0  0  0  0
   -9.9950    4.4790    7.6090 C   0  0  0  0  0  0  0  0  0  0  0  0
   -8.6630    5.2070    7.7200 C   0  0  0  0  0  0  0  0  0  0  0  0
  -10.7490    4.8610    6.3730 C   0  0  0  0  0  0  0  0  0  0  0  0
  -11.0350    6.2020    6.1170 C   0  0  0  0  0  0  0  0  0  0  0  0
  -11.7370    6.5580    4.9650 C   0  0  0  0  0  0  0  0  0  0  0  0
  -12.1550    5.5730    4.0710 C   0  0  0  0  0  0  0  0  0  0  0  0
  -11.8700    4.2310    4.3270 C   0  0  0  0  0  0  0  0  0  0  0  0
  -11.1660    3.8760    5.4790 C   0  0  0  0  0  0  0  0  0  0  0  0
  -12.0160    7.8660    4.7150 O   0  0  0  0  0  0  0  0  0  0  0  0
   -6.8990    7.6510    9.7710 O   0  0  0  0  0  0  0  0  0  0  0  0
   -6.8194    3.0912    5.3388 C   0  0  0  0  0  0  0  0  0  0  0  0
   -7.2864    2.4419    4.2145 C   0  0  0  0  0  0  0  0  0  0  0  0
   -6.5215    1.4319    3.4566 C   0  0  0  0  0  0  0  0  0  0  0  0
   -5.6532    0.7482    4.0603 O   0  0  0  0  0  0  0  0  0  0  0  0
   -6.6919    1.2870    2.0349 N   0  0  0  0  0  0  0  0  0  0  0  0
   -6.3141    0.0868    1.2781 C   0  0  0  0  0  0  0  0  0  0  0  0
   -6.9369   -1.1703    1.9027 C   0  0  0  0  0  0  0  0  0  0  0  0
   -4.7804   -0.0090    1.1465 C   0  0  0  0  0  0  0  0  0  0  0  0
   -4.3433   -1.0441    0.1110 C   0  0  0  0  0  0  0  0  0  0  0  0
   -8.5425    2.9749    3.9411 C   0  0  0  0  0  0  0  0  0  0  0  0
   -9.4404    2.5624    2.8088 C   0  0  0  0  0  0  0  0  0  0  0  0
   -8.8307    3.9577    4.8323 N   0  0  0  0  0  0  0  0  0  0  0  0
   -9.9236    4.9378    4.7143 C   0  0  0  0  0  0  0  0  0  0  0  0
   -9.6358    5.9620    3.6097 C   0  0  0  0  0  0  0  0  0  0  0  0
   -8.3878    6.7615    3.9029 C   0  0  0  0  0  0  0  0  0  0  0  0
   -8.4517    7.8896    4.6357 C   0  0  0  0  0  0  0  0  0  0  0  0
   -7.2188    8.7355    4.7968 C   0  0  0  0  0  0  0  0  0  0  0  0
   -6.5141    8.9121    3.4388 C   0  0  0  0  0  0  0  0  0  0  0  0
   -6.4015    7.5987    2.6136 C   0  0  0  0  0  0  0  0  0  0  0  0
   -7.0583    6.3803    3.2873 C   0  0  0  0  0  0  0  0  0  0  0  0
  1  3  4  0
  1 14  4  0
  1  2  1  0
  3  4  4  0
  4  5  4  0
  5  6  4  0
  5 22  1  0
  6  7  1  0
  6 14  4  0
  7  8  1  0
  8  9  4  0
  8 12  4  0
  9 10  4  0
 10 11  4  0
 11 12  4  0
 12 13  1  0
 13 14  1  0
 13 15  1  6
 15 16  4  0
 15 20  4  0
 16 17  4  0
 17 18  4  0
 17 21  1  0
 18 19  4  0
 19 20  4  0
 23 24  4  0
 24 25  1  0
 25 26  2  0
 25 27  1  0
 27 28  1  0
 28 29  1  0
 28 30  1  0
 30 31  1  0
 24 32  4  0
 32 33  1  0
 32 34  4  0
 34 35  1  0
 35 36  1  0
 36 37  1  0
 37 38  2  0
 38 39  1  0
 39 40  1  0
 40 41  1  0
 41 42  1  0
 42 37  1  0
  2 23  4  0
  2 34  4  0
M  END
$$$$

     RDKit          3D

 39 45  0  0  0  0  0  0  0  0999 V2000
   -7.6410    4.9930    6.8080 C   0  0  0  0  0  0  0  0  0  1  0  0
   -7.7310    4.0530    5.7140 C   0  0  0  0  0  0  0  0  0  2  0  0
   -6.4520    5.6300    6.8680 N   0  0  0  0  0  0  0  0  0  0  0  0
   -6.2260    6.5240    7.8670 N   0  0  0  0  0  0  0  0  0  0  0  0
   -7.1930    6.7500    8.7820 C   0  0  0  0  0  0  0  0  0  0  0  0
   -8.4240    6.1170    8.7580 C   0  0  0  0  0  0  0  0  0  0  0  0
   -9.3950    6.3570    9.7450 N   0  0  0  0  0  0  0  0  0  0  0  0
  -10.5620    5.6840    9.7600 C   0  0  0  0  0  0  0  0  0  0  0  0
  -11.5770    5.6820   10.5960 N   0  0  0  0  0  0  0  0  0  0  0  0
  -12.4690    4.7490   10.1080 N   0  0  0  0  0  0  0  0  0  0  0  0
  -12.0160    4.1880    8.9920 N   0  0  0  0  0  0  0  0  0  0  0  0
  -10.8400    4.7900    8.7610 N   0  0  0  0  0  0  0  0  0  0  0  0
   -9.9950    4.4790    7.6090 C   0  0  0  0  0  0  0  0  0  0  0  0
   -8.6630    5.2070    7.7200 C   0  0  0  0  0  0  0  0  0  0  0  0
  -10.7490    4.8610    6.3730 C   0  0  0  0  0  0  0  0  0  0  0  0
  -11.0350    6.2020    6.1170 C   0  0  0  0  0  0  0  0  0  0  0  0
  -11.7370    6.5580    4.9650 C   0  0  0  0  0  0  0  0  0  0  0  0
  -12.1550    5.5730    4.0710 C   0  0  0  0  0  0  0  0  0  0  0  0
  -11.8700    4.2310    4.3270 C   0  0  0  0  0  0  0  0  0  0  0  0
  -11.1660    3.8760    5.4790 C   0  0  0  0  0  0  0  0  0  0  0  0
  -12.0160    7.8660    4.7150 O   0  0  0  0  0  0  0  0  0  0  0  0
   -6.8990    7.6510    9.7710 O   0  0  0  0  0  0  0  0  0  0  0  0
   -6.9431    2.9012    5.5915 C   0  0  0  0  0  0  0  0  0  0  0  0
   -7.3698    2.0370    4.2209 S   0  0  0  0  0  0  0  0  0  0  0  0
   -8.6079    3.0968    3.7842 C   0  0  0  0  0  0  0  0  0  0  0  0
   -9.3597    2.9536    2.7222 N   0  0  0  0  0  0  0  0  0  0  0  0
   -9.1890    1.8766    1.7932 C   0  0  0  0  0  0  0  0  0  0  0  0
   -8.0759    1.8441    0.9366 C   0  0  0  0  0  0  0  0  0  0  0  0
   -7.9130    0.7833    0.0392 C   0  0  0  0  0  0  0  0  0  0  0  0
   -8.8530   -0.2537    0.0046 C   0  0  0  0  0  0  0  0  0  0  0  0
   -9.9663   -0.2213    0.8516 C   0  0  0  0  0  0  0  0  0  0  0  0
  -10.1445    0.8533    1.7307 C   0  0  0  0  0  0  0  0  0  0  0  0
   -8.7211    4.1181    4.6866 N   0  0  0  0  0  0  0  0  0  0  0  0
   -9.6123    5.2842    4.5306 C   0  0  0  0  0  0  0  0  0  0  0  0
   -8.9240    6.3940    3.7175 C   0  0  0  0  0  0  0  0  0  0  0  0
   -9.8355    7.6003    3.5302 C   0  0  0  0  0  0  0  0  0  0  0  0
  -10.4145    7.3770    2.1688 C   0  0  0  0  0  0  0  0  0  0  0  0
   -9.3461    6.5567    1.4796 C   0  0  0  0  0  0  0  0  0  0  0  0
   -8.5556    5.9019    2.4472 O   0  0  0  0  0  0  0  0  0  0  0  0
  1  3  4  0
  1 14  4  0
  1  2  1  0
  3  4  4  0
  4  5  4  0
  5  6  4  0
  5 22  1  0
  6  7  1  0
  6 14  4  0
  7  8  1  0
  8  9  4  0
  8 12  4  0
  9 10  4  0
 10 11  4  0
 11 12  4  0
 12 13  1  0
 13 14  1  0
 13 15  1  6
 15 16  4  0
 15 20  4  0
 16 17  4  0
 17 18  4  0
 17 21  1  0
 18 19  4  0
 19 20  4  0
 23 24  4  0
 24 25  4  0
 25 26  2  3
 26 27  1  0
 27 28  4  0
 28 29  4  0
 29 30  4  0
 30 31  4  0
 31 32  4  0
 25 33  4  0
 33 34  1  0
 34 35  1  0
 35 36  1  0
 36 37  1  0
 37 38  1  0
 38 39  1  0
 39 35  1  0
 32 27  4  0
  2 23  4  0
  2 33  4  0
M  CHG  1  26   1
M  END
$$$$

     RDKit          3D

 42 47  0  0  0  0  0  0  0  0999 V2000
   -7.6410    4.9930    6.8080 C   0  0  0  0  0  0  0  0  0  1  0  0
   -7.7310    4.0530    5.7140 C   0  0  0  0  0  0  0  0  0  2  0  0
   -6.4520    5.6300    6.8680 N   0  0  0  0  0  0  0  0  0  0  0  0
   -6.2260    6.5240    7.8670 N   0  0  0  0  0  0  0  0  0  0  0  0
   -7.1930    6.7500    8.7820 C   0  0  0  0  0  0  0  0  0  0  0  0
   -8.4240    6.1170    8.7580 C   0  0  0  0  0  0  0  0  0  0  0  0
   -9.3950    6.3570    9.7450 N   0  0  0  0  0  0  0  0  0  0  0  0
  -10.5620    5.6840    9.7600 C   0  0  0  0  0  0  0  0  0  0  0  0
  -11.5770    5.6820   10.5960 N   0  0  0  0  0  0  0  0  0  0  0  0
  -12.4690    4.7490   10.1080 N   0  0  0  0  0  0  0  0  0  0  0  0
  -12.0160    4.1880    8.9920 N   0  0  0  0  0  0  0  0  0  0  0  0
  -10.8400    4.7900    8.7610 N   0  0  0  0  0  0  0  0  0  0  0  0
   -9.9950    4.4790    7.6090 C   0  0  0  0  0  0  0  0  0  0  0  0
   -8.6630    5.2070    7.7200 C   0  0  0  0  0  0  0  0  0  0  0  0
  -10.7490    4.8610    6.3730 C   0  0  0  0  0  0  0  0  0  0  0  0
  -11.0350    6.2020    6.1170 C   0  0  0  0  0  0  0  0  0  0  0  0
  -11.7370    6.5580    4.9650 C   0  0  0  0  0  0  0  0  0  0  0  0
  -12.1550    5.5730    4.0710 C   0  0  0  0  0  0  0  0  0  0  0  0
  -11.8700    4.2310    4.3270 C   0  0  0  0  0  0  0  0  0  0  0  0
  -11.1660    3.8760    5.4790 C   0  0  0  0  0  0  0  0  0  0  0  0
  -12.0160    7.8660    4.7150 O   0  0  0  0  0  0  0  0  0  0  0  0
   -6.8990    7.6510    9.7710 O   0  0  0  0  0  0  0  0  0  0  0  0
   -6.8038    3.1717    5.2852 N   0  0  0  0  0  0  0  0  0  0  0  0
   -7.2989    2.4239    4.3060 N   0  0  0  0  0  0  0  0  0  0  0  0
   -8.5723    2.8170    4.1172 C   0  0  0  0  0  0  0  0  0  0  0  0
   -9.6636    2.1126    2.8810 S   0  0  0  0  0  0  0  0  0  0  0  0
  -10.3720    0.9018    4.0444 C   0  0  0  0  0  0  0  0  0  0  0  0
  -11.5021    0.1665    3.3954 C   0  0  0  0  0  0  0  0  0  0  0  0
  -11.3871   -1.0661    3.1872 O   0  0  0  0  0  0  0  0  0  0  0  0
  -12.6940    0.8761    3.0204 N   0  0  0  0  0  0  0  0  0  0  0  0
  -14.0317    0.2996    2.7955 C   0  0  0  0  0  0  0  0  0  0  0  0
  -14.6265   -0.3348    4.0745 C   0  0  0  0  0  0  0  0  0  0  0  0
  -14.3545   -1.8342    4.2147 C   0  0  0  0  0  0  0  0  0  0  0  0
  -14.7778   -2.5862    2.9532 C   0  0  0  0  0  0  0  0  0  0  0  0
  -13.9716   -2.1049    1.7324 C   0  0  0  0  0  0  0  0  0  0  0  0
  -14.3805   -2.8868    0.4655 C   0  0  0  0  0  0  0  0  0  0  0  0
  -14.1413   -4.2394    0.6441 F   0  0  0  0  0  0  0  0  0  0  0  0
  -13.6369   -2.4530   -0.6204 F   0  0  0  0  0  0  0  0  0  0  0  0
  -15.7248   -2.7043    0.1887 F   0  0  0  0  0  0  0  0  0  0  0  0
  -14.1281   -0.5779    1.5167 C   0  0  0  0  0  0  0  0  0  0  0  0
   -8.9070    3.8017    4.9678 N   0  0  0  0  0  0  0  0  0  0  0  0
  -10.0972    4.5477    4.9732 N   0  0  0  0  0  0  0  0  0  0  0  0
  1  3  4  0
  1 14  4  0
  1  2  1  0
  3  4  4  0
  4  5  4  0
  5  6  4  0
  5 22  1  0
  6  7  1  0
  6 14  4  0
  7  8  1  0
  8  9  4  0
  8 12  4  0
  9 10  4  0
 10 11  4  0
 11 12  4  0
 12 13  1  0
 13 14  1  0
 13 15  1  6
 15 16  4  0
 15 20  4  0
 16 17  4  0
 17 18  4  0
 17 21  1  0
 18 19  4  0
 19 20  4  0
 23 24  4  0
 24 25  4  0
 25 26  1  0
 26 27  1  0
 27 28  1  0
 28 29  2  0
 28 30  1  0
 30 31  1  0
 31 32  1  0
 32 33  1  0
 33 34  1  0
 34 35  1  0
 35 36  1  0
 36 37  1  0
 36 38  1  0
 36 39  1  0
 35 40  1  0
 25 41  4  0
 41 42  1  0
 40 31  1  0
  2 23  4  0
  2 41  4  0
M  END
$$$$

     RDKit          3D

 42 47  0  0  0  0  0  0  0  0999 V2000
   -7.6410    4.9930    6.8080 C   0  0  0  0  0  0  0  0  0  1  0  0
   -7.7310    4.0530    5.7140 C   0  0  0  0  0  0  0  0  0  2  0  0
   -6.4520    5.6300    6.8680 N   0  0  0  0  0  0  0  0  0  0  0  0
   -6.2260    6.5240    7.8670 N   0  0  0  0  0  0  0  0  0  0  0  0
   -7.1930    6.7500    8.7820 C   0  0  0  0  0  0  0  0  0  0  0  0
   -8.4240    6.1170    8.7580 C   0  0  0  0  0  0  0  0  0  0  0  0
   -9.3950    6.3570    9.7450 N   0  0  0  0  0  0  0  0  0  0  0  0
  -10.5620    5.6840    9.7600 C   0  0  0  0  0  0  0  0  0  0  0  0
  -11.5770    5.6820   10.5960 N   0  0  0  0  0  0  0  0  0  0  0  0
  -12.4690    4.7490   10.1080 N   0  0  0  0  0  0  0  0  0  0  0  0
  -12.0160    4.1880    8.9920 N   0  0  0  0  0  0  0  0  0  0  0  0
  -10.8400    4.7900    8.7610 N   0  0  0  0  0  0  0  0  0  0  0  0
   -9.9950    4.4790    7.6090 C   0  0  0  0  0  0  0  0  0  0  0  0
   -8.6630    5.2070    7.7200 C   0  0  0  0  0  0  0  0  0  0  0  0
  -10.7490    4.8610    6.3730 C   0  0  0  0  0  0  0  0  0  0  0  0
  -11.0350    6.2020    6.1170 C   0  0  0  0  0  0  0  0  0  0  0  0
  -11.7370    6.5580    4.9650 C   0  0  0  0  0  0  0  0  0  0  0  0
  -12.1550    5.5730    4.0710 C   0  0  0  0  0  0  0  0  0  0  0  0
  -11.8700    4.2310    4.3270 C   0  0  0  0  0  0  0  0  0  0  0  0
  -11.1660    3.8760    5.4790 C   0  0  0  0  0  0  0  0  0  0  0  0
  -12.0160    7.8660    4.7150 O   0  0  0  0  0  0  0  0  0  0  0  0
   -6.8990    7.6510    9.7710 O   0  0  0  0  0  0  0  0  0  0  0  0
   -6.7948    3.1877    5.2731 N   0  0  0  0  0  0  0  0  0  0  0  0
   -7.2878    2.4370    4.2959 N   0  0  0  0  0  0  0  0  0  0  0  0
   -8.5709    2.8078    4.1257 C   0  0  0  0  0  0  0  0  0  0  0  0
   -9.6529    2.1092    2.8762 S   0  0  0  0  0  0  0  0  0  0  0  0
  -10.3646    0.8462    3.9873 C   0  0  0  0  0  0  0  0  0  0  0  0
   -9.3478   -0.2085    4.3192 C   0  0  0  0  0  0  0  0  0  0  0  0
   -8.9485   -0.3066    5.5104 O   0  0  0  0  0  0  0  0  0  0  0  0
   -8.7502   -1.0498    3.3174 N   0  0  0  0  0  0  0  0  0  0  0  0
   -9.4749   -1.8353    2.3066 C   0  0  0  0  0  0  0  0  0  0  0  0
   -9.9131   -0.9706    1.1146 C   0  0  0  0  0  0  0  0  0  0  0  0
  -10.5958   -1.8303    0.0472 C   0  0  0  0  0  0  0  0  0  0  0  0
  -11.8038   -2.5795    0.6299 C   0  0  0  0  0  0  0  0  0  0  0  0
  -11.4552   -3.4286    1.8770 C   0  0  0  0  0  0  0  0  0  0  0  0
  -10.7881   -4.7799    1.5272 C   0  0  0  0  0  0  0  0  0  0  0  0
   -9.5738   -4.6081    0.8912 F   0  0  0  0  0  0  0  0  0  0  0  0
  -10.5824   -5.5156    2.6811 F   0  0  0  0  0  0  0  0  0  0  0  0
  -11.6199   -5.5101    0.6966 F   0  0  0  0  0  0  0  0  0  0  0  0
  -10.6644   -2.6016    2.9216 C   0  0  0  0  0  0  0  0  0  0  0  0
   -8.9105    3.7864    4.9809 N   0  0  0  0  0  0  0  0  0  0  0  0
  -10.1068    4.5225    4.9917 N   0  0  0  0  0  0  0  0  0  0  0  0
  1  3  4  0
  1 14  4  0
  1  2  1  0
  3  4  4  0
  4  5  4  0
  5  6  4  0
  5 22  1  0
  6  7  1  0
  6 14  4  0
  7  8  1  0
  8  9  4  0
  8 12  4  0
  9 10  4  0
 10 11  4  0
 11 12  4  0
 12 13  1  0
 13 14  1  0
 13 15  1  6
 15 16  4  0
 15 20  4  0
 16 17  4  0
 17 18  4  0
 17 21  1  0
 18 19  4  0
 19 20  4  0
 23 24  4  0
 24 25  4  0
 25 26  1  0
 26 27  1  0
 27 28  1  0
 28 29  2  0
 28 30  1  0
 30 31  1  0
 31 32  1  0
 32 33  1  0
 33 34  1  0
 34 35  1  0
 35 36  1  0
 36 37  1  0
 36 38  1  0
 36 39  1  0
 35 40  1  0
 25 41  4  0
 41 42  1  0
 40 31  1  0
  2 23  4  0
  2 41  4  0
M  END
$$$$

     RDKit          3D

 30 35  0  0  0  0  0  0  0  0999 V2000
   -7.6410    4.9930    6.8080 C   0  0  0  0  0  0  0  0  0  1  0  0
   -7.7310    4.0530    5.7140 C   0  0  0  0  0  0  0  0  0  2  0  0
   -6.4520    5.6300    6.8680 N   0  0  0  0  0  0  0  0  0  0  0  0
   -6.2260    6.5240    7.8670 N   0  0  0  0  0  0  0  0  0  0  0  0
   -7.1930    6.7500    8.7820 C   0  0  0  0  0  0  0  0  0  0  0  0
   -8.4240    6.1170    8.7580 C   0  0  0  0  0  0  0  0  0  0  0  0
   -9.3950    6.3570    9.7450 N   0  0  0  0  0  0  0  0  0  0  0  0
  -10.5620    5.6840    9.7600 C   0  0  0  0  0  0  0  0  0  0  0  0
  -11.5770    5.6820   10.5960 N   0  0  0  0  0  0  0  0  0  0  0  0
  -12.4690    4.7490   10.1080 N   0  0  0  0  0  0  0  0  0  0  0  0
  -12.0160    4.1880    8.9920 N   0  0  0  0  0  0  0  0  0  0  0  0
  -10.8400    4.7900    8.7610 N   0  0  0  0  0  0  0  0  0  0  0  0
   -9.9950    4.4790    7.6090 C   0  0  0  0  0  0  0  0  0  0  0  0
   -8.6630    5.2070    7.7200 C   0  0  0  0  0  0  0  0  0  0  0  0
  -10.7490    4.8610    6.3730 C   0  0  0  0  0  0  0  0  0  0  0  0
  -11.0350    6.2020    6.1170 C   0  0  0  0  0  0  0  0  0  0  0  0
  -11.7370    6.5580    4.9650 C   0  0  0  0  0  0  0  0  0  0  0  0
  -12.1550    5.5730    4.0710 C   0  0  0  0  0  0  0  0  0  0  0  0
  -11.8700    4.2310    4.3270 C   0  0  0  0  0  0  0  0  0  0  0  0
  -11.1660    3.8760    5.4790 C   0  0  0  0  0  0  0  0  0  0  0  0
  -12.0160    7.8660    4.7150 O   0  0  0  0  0  0  0  0  0  0  0  0
   -6.8990    7.6510    9.7710 O   0  0  0  0  0  0  0  0  0  0  0  0
   -6.7489    3.1766    5.3534 N   0  0  0  0  0  0  0  0  0  0  0  0
   -6.8205    2.2782    4.3848 O   0  0  0  0  0  0  0  0  0  0  0  0
   -7.9146    2.1041    3.6406 C   0  0  0  0  0  0  0  0  0  0  0  0
   -9.0139    2.9023    3.8998 C   0  0  0  0  0  0  0  0  0  1  0  0
  -10.2375    2.9970    3.2801 C   0  0  0  0  0  0  0  0  0  0  0  0
  -10.9297    4.0257    3.9124 C   0  0  0  0  0  0  0  0  0  0  0  0
  -10.1448    4.5749    4.9239 C   0  0  0  0  0  0  0  0  0  0  0  0
   -8.9534    3.8772    4.9395 C   0  0  0  0  0  0  0  0  0  2  0  0
  1  3  4  0
  1 14  4  0
  1  2  1  0
  3  4  4  0
  4  5  4  0
  5  6  4  0
  5 22  1  0
  6  7  1  0
  6 14  4  0
  7  8  1  0
  8  9  4  0
  8 12  4  0
  9 10  4  0
 10 11  4  0
 11 12  4  0
 12 13  1  0
 13 14  1  0
 13 15  1  6
 15 16  4  0
 15 20  4  0
 16 17  4  0
 17 18  4  0
 17 21  1  0
 18 19  4  0
 19 20  4  0
 23 24  4  0
 24 25  4  0
 25 26  4  0
 26 27  4  0
 27 28  4  0
 28 29  4  0
 29 30  4  0
 30 26  1  0
  2 23  4  0
  2 30  4  0
M  END
$$$$

     RDKit          3D

 40 45  0  0  0  0  0  0  0  0999 V2000
   -7.6410    4.9930    6.8080 C   0  0  0  0  0  0  0  0  0  1  0  0
   -7.7310    4.0530    5.7140 C   0  0  0  0  0  0  0  0  0  2  0  0
   -6.4520    5.6300    6.8680 N   0  0  0  0  0  0  0  0  0  0  0  0
   -6.2260    6.5240    7.8670 N   0  0  0  0  0  0  0  0  0  0  0  0
   -7.1930    6.7500    8.7820 C   0  0  0  0  0  0  0  0  0  0  0  0
   -8.4240    6.1170    8.7580 C   0  0  0  0  0  0  0  0  0  0  0  0
   -9.3950    6.3570    9.7450 N   0  0  0  0  0  0  0  0  0  0  0  0
  -10.5620    5.6840    9.7600 C   0  0  0  0  0  0  0  0  0  0  0  0
  -11.5770    5.6820   10.5960 N   0  0  0  0  0  0  0  0  0  0  0  0
  -12.4690    4.7490   10.1080 N   0  0  0  0  0  0  0  0  0  0  0  0
  -12.0160    4.1880    8.9920 N   0  0  0  0  0  0  0  0  0  0  0  0
  -10.8400    4.7900    8.7610 N   0  0  0  0  0  0  0  0  0  0  0  0
   -9.9950    4.4790    7.6090 C   0  0  0  0  0  0  0  0  0  0  0  0
   -8.6630    5.2070    7.7200 C   0  0  0  0  0  0  0  0  0  0  0  0
  -10.7490    4.8610    6.3730 C   0  0  0  0  0  0  0  0  0  0  0  0
  -11.0350    6.2020    6.1170 C   0  0  0  0  0  0  0  0  0  0  0  0
  -11.7370    6.5580    4.9650 C   0  0  0  0  0  0  0  0  0  0  0  0
  -12.1550    5.5730    4.0710 C   0  0  0  0  0  0  0  0  0  0  0  0
  -11.8700    4.2310    4.3270 C   0  0  0  0  0  0  0  0  0  0  0  0
  -11.1660    3.8760    5.4790 C   0  0  0  0  0  0  0  0  0  0  0  0
  -12.0160    7.8660    4.7150 O   0  0  0  0  0  0  0  0  0  0  0  0
   -6.8990    7.6510    9.7710 O   0  0  0  0  0  0  0  0  0  0  0  0
   -6.8561    3.0669    5.4099 N   0  0  0  0  0  0  0  0  0  0  0  0
   -7.2961    2.4151    4.3466 N   0  0  0  0  0  0  0  0  0  0  0  0
   -8.4649    2.9637    3.9786 C   0  0  0  0  0  0  0  0  0  0  0  0
   -9.3115    2.4842    2.6587 S   0  0  0  0  0  0  0  0  0  0  0  0
   -8.8127    3.9745    4.8054 N   0  0  0  0  0  0  0  0  0  0  0  0
   -9.9111    4.9383    4.6404 C   0  0  0  0  0  0  0  0  0  0  0  0
   -9.3994    6.2825    4.1049 C   0  0  0  0  0  0  0  0  0  0  0  0
   -8.7048    6.1284    2.7775 C   0  0  0  0  0  0  0  0  0  0  0  0
   -7.4453    6.1920    2.7511 O   0  0  0  0  0  0  0  0  0  0  0  0
   -9.4385    5.8943    1.5552 N   0  0  0  0  0  0  0  0  0  0  0  0
  -10.8409    6.3068    1.4364 C   0  0  0  0  0  0  0  0  0  0  0  0
   -8.7509    5.3658    0.3700 C   0  0  0  0  0  0  0  0  0  0  0  0
   -8.4502    6.4689   -0.5961 C   0  0  0  0  0  0  0  0  0  0  0  0
   -7.5896    7.5283   -0.3767 C   0  0  0  0  0  0  0  0  0  0  0  0
   -7.6323    8.2887   -1.5261 C   0  0  0  0  0  0  0  0  0  0  0  0
   -8.5125    7.6409   -2.3703 C   0  0  0  0  0  0  0  0  0  0  0  0
   -8.8989    8.0962   -3.7370 C   0  0  0  0  0  0  0  0  0  0  0  0
   -8.9864    6.5622   -1.7912 O   0  0  0  0  0  0  0  0  0  0  0  0
  1  3  4  0
  1 14  4  0
  1  2  1  0
  3  4  4  0
  4  5  4  0
  5  6  4  0
  5 22  1  0
  6  7  1  0
  6 14  4  0
  7  8  1  0
  8  9  4  0
  8 12  4  0
  9 10  4  0
 10 11  4  0
 11 12  4  0
 12 13  1  0
 13 14  1  0
 13 15  1  6
 15 16  4  0
 15 20  4  0
 16 17  4  0
 17 18  4  0
 17 21  1  0
 18 19  4  0
 19 20  4  0
 23 24  4  0
 24 25  4  0
 25 26  2  0
 25 27  4  0
 27 28  1  0
 28 29  1  0
 29 30  1  0
 30 31  2  0
 30 32  1  0
 32 33  1  0
 32 34  1  0
 34 35  1  0
 35 36  4  0
 36 37  4  0
 37 38  4  0
 38 39  1  0
 38 40  4  0
 40 35  4  0
  2 23  4  0
  2 27  4  0
M  END
$$$$

     RDKit          3D

 41 48  0  0  0  0  0  0  0  0999 V2000
   -7.6410    4.9930    6.8080 C   0  0  0  0  0  0  0  0  0  1  0  0
   -7.7310    4.0530    5.7140 C   0  0  0  0  0  0  0  0  0  2  0  0
   -6.4520    5.6300    6.8680 N   0  0  0  0  0  0  0  0  0  0  0  0
   -6.2260    6.5240    7.8670 N   0  0  0  0  0  0  0  0  0  0  0  0
   -7.1930    6.7500    8.7820 C   0  0  0  0  0  0  0  0  0  0  0  0
   -8.4240    6.1170    8.7580 C   0  0  0  0  0  0  0  0  0  0  0  0
   -9.3950    6.3570    9.7450 N   0  0  0  0  0  0  0  0  0  0  0  0
  -10.5620    5.6840    9.7600 C   0  0  0  0  0  0  0  0  0  0  0  0
  -11.5770    5.6820   10.5960 N   0  0  0  0  0  0  0  0  0  0  0  0
  -12.4690    4.7490   10.1080 N   0  0  0  0  0  0  0  0  0  0  0  0
  -12.0160    4.1880    8.9920 N   0  0  0  0  0  0  0  0  0  0  0  0
  -10.8400    4.7900    8.7610 N   0  0  0  0  0  0  0  0  0  0  0  0
   -9.9950    4.4790    7.6090 C   0  0  0  0  0  0  0  0  0  0  0  0
   -8.6630    5.2070    7.7200 C   0  0  0  0  0  0  0  0  0  0  0  0
  -10.7490    4.8610    6.3730 C   0  0  0  0  0  0  0  0  0  0  0  0
  -11.0350    6.2020    6.1170 C   0  0  0  0  0  0  0  0  0  0  0  0
  -11.7370    6.5580    4.9650 C   0  0  0  0  0  0  0  0  0  0  0  0
  -12.1550    5.5730    4.0710 C   0  0  0  0  0  0  0  0  0  0  0  0
  -11.8700    4.2310    4.3270 C   0  0  0  0  0  0  0  0  0  0  0  0
  -11.1660    3.8760    5.4790 C   0  0  0  0  0  0  0  0  0  0  0  0
  -12.0160    7.8660    4.7150 O   0  0  0  0  0  0  0  0  0  0  0  0
   -6.8990    7.6510    9.7710 O   0  0  0  0  0  0  0  0  0  0  0  0
   -6.9499    2.8756    5.7180 C   0  0  0  0  0  0  0  0  0  0  0  0
   -7.1618    1.8108    4.8315 C   0  0  0  0  0  0  0  0  0  1  0  0
   -6.3036    0.5993    4.8441 C   0  0  0  0  0  0  0  0  0  2  0  0
   -5.6911    0.1363    6.0429 C   0  0  0  0  0  0  0  0  0  0  0  0
   -4.8871   -1.0180    6.0391 C   0  0  0  0  0  0  0  0  0  0  0  0
   -4.7192   -1.6899    4.8340 C   0  0  0  0  0  0  0  0  0  0  0  0
   -5.3056   -1.2652    3.6880 C   0  0  0  0  0  0  0  0  0  0  0  0
   -6.1088   -0.1297    3.6462 C   0  0  0  0  0  0  0  0  0  0  0  0
   -4.9708   -2.1199    2.6554 O   0  0  0  0  0  0  0  0  0  0  0  0
   -4.1209   -3.1457    3.1875 C   0  0  0  0  0  0  0  0  0  0  0  0
   -3.9865   -2.8334    4.5810 O   0  0  0  0  0  0  0  0  0  0  0  0
   -8.1894    1.8840    3.9466 N   0  0  0  0  0  0  0  0  0  0  0  0
   -9.0092    2.9616    3.8633 C   0  0  0  0  0  0  0  0  0  0  0  0
  -10.0373    2.9381    2.9790 N   0  0  0  0  0  0  0  0  0  0  0  0
  -10.8792    3.9905    2.8557 C   0  0  0  0  0  0  0  0  0  0  0  0
  -10.6708    5.1135    3.5834 N   0  0  0  0  0  0  0  0  0  0  0  0
   -9.6496    5.2126    4.4753 C   0  0  0  0  0  0  0  0  0  0  0  0
   -9.4175    6.4896    5.0764 N   0  0  0  0  0  0  0  0  0  0  0  0
   -8.8035    4.0890    4.6955 C   0  0  0  0  0  0  0  0  0  0  0  0
  1  3  4  0
  1 14  4  0
  1  2  1  0
  3  4  4  0
  4  5  4  0
  5  6  4  0
  5 22  1  0
  6  7  1  0
  6 14  4  0
  7  8  1  0
  8  9  4  0
  8 12  4  0
  9 10  4  0
 10 11  4  0
 11 12  4  0
 12 13  1  0
 13 14  1  0
 13 15  1  6
 15 16  4  0
 15 20  4  0
 16 17  4  0
 17 18  4  0
 17 21  1  0
 18 19  4  0
 19 20  4  0
 23 24  4  0
 24 25  1  0
 25 26  4  0
 26 27  4  0
 27 28  4  0
 28 29  4  0
 29 30  4  0
 29 31  1  0
 31 32  1  0
 32 33  1  0
 24 34  4  0
 34 35  4  0
 35 36  4  0
 36 37  4  0
 37 38  4  0
 38 39  4  0
 39 40  1  0
 39 41  4  0
 30 25  4  0
 41 35  4  0
 33 28  1  0
  2 23  4  0
  2 41  4  0
M  END
$$$$

     RDKit          3D

 33 38  0  0  0  0  0  0  0  0999 V2000
   -7.6410    4.9930    6.8080 C   0  0  0  0  0  0  0  0  0  1  0  0
   -7.7310    4.0530    5.7140 C   0  0  0  0  0  0  0  0  0  2  0  0
   -6.4520    5.6300    6.8680 N   0  0  0  0  0  0  0  0  0  0  0  0
   -6.2260    6.5240    7.8670 N   0  0  0  0  0  0  0  0  0  0  0  0
   -7.1930    6.7500    8.7820 C   0  0  0  0  0  0  0  0  0  0  0  0
   -8.4240    6.1170    8.7580 C   0  0  0  0  0  0  0  0  0  0  0  0
   -9.3950    6.3570    9.7450 N   0  0  0  0  0  0  0  0  0  0  0  0
  -10.5620    5.6840    9.7600 C   0  0  0  0  0  0  0  0  0  0  0  0
  -11.5770    5.6820   10.5960 N   0  0  0  0  0  0  0  0  0  0  0  0
  -12.4690    4.7490   10.1080 N   0  0  0  0  0  0  0  0  0  0  0  0
  -12.0160    4.1880    8.9920 N   0  0  0  0  0  0  0  0  0  0  0  0
  -10.8400    4.7900    8.7610 N   0  0  0  0  0  0  0  0  0  0  0  0
   -9.9950    4.4790    7.6090 C   0  0  0  0  0  0  0  0  0  0  0  0
   -8.6630    5.2070    7.7200 C   0  0  0  0  0  0  0  0  0  0  0  0
  -10.7490    4.8610    6.3730 C   0  0  0  0  0  0  0  0  0  0  0  0
  -11.0350    6.2020    6.1170 C   0  0  0  0  0  0  0  0  0  0  0  0
  -11.7370    6.5580    4.9650 C   0  0  0  0  0  0  0  0  0  0  0  0
  -12.1550    5.5730    4.0710 C   0  0  0  0  0  0  0  0  0  0  0  0
  -11.8700    4.2310    4.3270 C   0  0  0  0  0  0  0  0  0  0  0  0
  -11.1660    3.8760    5.4790 C   0  0  0  0  0  0  0  0  0  0  0  0
  -12.0160    7.8660    4.7150 O   0  0  0  0  0  0  0  0  0  0  0  0
   -6.8990    7.6510    9.7710 O   0  0  0  0  0  0  0  0  0  0  0  0
   -6.7667    3.1564    5.2168 C   0  0  0  0  0  0  0  0  0  0  0  0
   -7.3660    2.1942    3.9316 S   0  0  0  0  0  0  0  0  0  0  0  0
   -8.8789    2.9015    4.0528 C   0  0  0  0  0  0  0  0  0  0  0  0
   -9.9926    2.7722    3.3098 N   0  0  0  0  0  0  0  0  0  0  0  0
  -10.8093    3.6983    3.8856 C   0  0  0  0  0  0  0  0  0  0  0  0
  -12.1798    4.0188    3.3791 C   0  0  0  0  0  0  0  0  0  0  0  0
  -12.1198    5.1392    2.3906 C   0  0  0  0  0  0  0  0  0  0  0  0
  -11.5267    4.9838    1.2905 O   0  0  0  0  0  0  0  0  0  0  0  0
  -12.7238    6.3562    2.6803 O   0  0  0  0  0  0  0  0  0  0  0  0
  -10.1593    4.3673    4.9231 C   0  0  0  0  0  0  0  0  0  0  0  0
   -8.9426    3.8163    4.9997 N   0  0  0  0  0  0  0  0  0  0  0  0
  1  3  4  0
  1 14  4  0
  1  2  1  0
  3  4  4  0
  4  5  4  0
  5  6  4  0
  5 22  1  0
  6  7  1  0
  6 14  4  0
  7  8  1  0
  8  9  4  0
  8 12  4  0
  9 10  4  0
 10 11  4  0
 11 12  4  0
 12 13  1  0
 13 14  1  0
 13 15  1  6
 15 16  4  0
 15 20  4  0
 16 17  4  0
 17 18  4  0
 17 21  1  0
 18 19  4  0
 19 20  4  0
 23 24  4  0
 24 25  4  0
 25 26  4  0
 26 27  4  0
 27 28  1  0
 28 29  1  0
 29 30  2  0
 29 31  1  0
 27 32  4  0
 32 33  4  0
 33 25  4  0
  2 23  4  0
  2 33  4  0
M  CHG  1  31  -1
M  END
$$$$

     RDKit          3D

 43 49  0  0  0  0  0  0  0  0999 V2000
   -7.6410    4.9930    6.8080 C   0  0  0  0  0  0  0  0  0  1  0  0
   -7.7310    4.0530    5.7140 C   0  0  0  0  0  0  0  0  0  2  0  0
   -6.4520    5.6300    6.8680 N   0  0  0  0  0  0  0  0  0  0  0  0
   -6.2260    6.5240    7.8670 N   0  0  0  0  0  0  0  0  0  0  0  0
   -7.1930    6.7500    8.7820 C   0  0  0  0  0  0  0  0  0  0  0  0
   -8.4240    6.1170    8.7580 C   0  0  0  0  0  0  0  0  0  0  0  0
   -9.3950    6.3570    9.7450 N   0  0  0  0  0  0  0  0  0  0  0  0
  -10.5620    5.6840    9.7600 C   0  0  0  0  0  0  0  0  0  0  0  0
  -11.5770    5.6820   10.5960 N   0  0  0  0  0  0  0  0  0  0  0  0
  -12.4690    4.7490   10.1080 N   0  0  0  0  0  0  0  0  0  0  0  0
  -12.0160    4.1880    8.9920 N   0  0  0  0  0  0  0  0  0  0  0  0
  -10.8400    4.7900    8.7610 N   0  0  0  0  0  0  0  0  0  0  0  0
   -9.9950    4.4790    7.6090 C   0  0  0  0  0  0  0  0  0  0  0  0
   -8.6630    5.2070    7.7200 C   0  0  0  0  0  0  0  0  0  0  0  0
  -10.7490    4.8610    6.3730 C   0  0  0  0  0  0  0  0  0  0  0  0
  -11.0350    6.2020    6.1170 C   0  0  0  0  0  0  0  0  0  0  0  0
  -11.7370    6.5580    4.9650 C   0  0  0  0  0  0  0  0  0  0  0  0
  -12.1550    5.5730    4.0710 C   0  0  0  0  0  0  0  0  0  0  0  0
  -11.8700    4.2310    4.3270 C   0  0  0  0  0  0  0  0  0  0  0  0
  -11.1660    3.8760    5.4790 C   0  0  0  0  0  0  0  0  0  0  0  0
  -12.0160    7.8660    4.7150 O   0  0  0  0  0  0  0  0  0  0  0  0
   -6.8990    7.6510    9.7710 O   0  0  0  0  0  0  0  0  0  0  0  0
   -6.8880    3.0269    5.4492 N   0  0  0  0  0  0  0  0  0  0  0  0
   -7.3275    2.3499    4.3979 N   0  0  0  0  0  0  0  0  0  0  0  0
   -8.4733    2.9370    4.0066 C   0  0  0  0  0  0  0  0  0  0  0  0
   -9.4447    2.3756    2.6074 S   0  0  0  0  0  0  0  0  0  0  0  0
   -8.5078    3.3768    1.4060 C   0  0  0  0  0  0  0  0  0  0  0  0
   -9.1330    3.2502    0.0454 C   0  0  0  0  0  0  0  0  0  0  0  0
  -10.3455    3.5700   -0.0909 O   0  0  0  0  0  0  0  0  0  0  0  0
   -8.3796    2.7550   -1.1322 C   0  0  0  0  0  0  0  0  0  0  0  0
   -9.0528    2.0383   -2.1343 C   0  0  0  0  0  0  0  0  0  0  0  0
   -8.3666    1.5707   -3.2561 C   0  0  0  0  0  0  0  0  0  0  0  0
   -6.9987    1.8251   -3.4098 C   0  0  0  0  0  0  0  0  0  0  0  0
   -6.3029    2.5247   -2.3991 C   0  0  0  0  0  0  0  0  0  0  0  0
   -7.0030    3.0027   -1.2788 C   0  0  0  0  0  0  0  0  0  0  0  0
   -4.8083    2.7157   -2.4920 C   0  0  0  0  0  0  0  0  0  0  0  0
   -4.4058    3.7520   -3.5542 C   0  0  0  0  0  0  0  0  0  0  0  0
   -5.1271    3.6091   -4.9067 C   0  0  0  0  0  0  0  0  0  0  0  0
   -5.3653    2.1760   -5.2978 C   0  0  0  0  0  0  0  0  0  0  0  0
   -4.7519    1.6906   -6.2856 O   0  0  0  0  0  0  0  0  0  0  0  0
   -6.3303    1.3741   -4.6000 N   0  0  0  0  0  0  0  0  0  0  0  0
   -8.7827    3.9909    4.7854 N   0  0  0  0  0  0  0  0  0  0  0  0
   -9.9276    4.8905    4.6542 C   0  0  0  0  0  0  0  0  0  0  0  0
  1  3  4  0
  1 14  4  0
  1  2  1  0
  3  4  4  0
  4  5  4  0
  5  6  4  0
  5 22  1  0
  6  7  1  0
  6 14  4  0
  7  8  1  0
  8  9  4  0
  8 12  4  0
  9 10  4  0
 10 11  4  0
 11 12  4  0
 12 13  1  0
 13 14  1  0
 13 15  1  6
 15 16  4  0
 15 20  4  0
 16 17  4  0
 17 18  4  0
 17 21  1  0
 18 19  4  0
 19 20  4  0
 23 24  4  0
 24 25  4  0
 25 26  1  0
 26 27  1  0
 27 28  1  0
 28 29  2  0
 28 30  1  0
 30 31  4  0
 31 32  4  0
 32 33  4  0
 33 34  4  0
 34 35  4  0
 34 36  1  0
 36 37  1  0
 37 38  1  0
 38 39  1  0
 39 40  2  0
 39 41  1  0
 25 42  4  0
 42 43  1  0
 35 30  4  0
 41 33  1  0
  2 23  4  0
  2 42  4  0
M  END
$$$$

     RDKit          3D

 43 49  0  0  0  0  0  0  0  0999 V2000
   -7.6410    4.9930    6.8080 C   0  0  0  0  0  0  0  0  0  1  0  0
   -7.7310    4.0530    5.7140 C   0  0  0  0  0  0  0  0  0  2  0  0
   -6.4520    5.6300    6.8680 N   0  0  0  0  0  0  0  0  0  0  0  0
   -6.2260    6.5240    7.8670 N   0  0  0  0  0  0  0  0  0  0  0  0
   -7.1930    6.7500    8.7820 C   0  0  0  0  0  0  0  0  0  0  0  0
   -8.4240    6.1170    8.7580 C   0  0  0  0  0  0  0  0  0  0  0  0
   -9.3950    6.3570    9.7450 N   0  0  0  0  0  0  0  0  0  0  0  0
  -10.5620    5.6840    9.7600 C   0  0  0  0  0  0  0  0  0  0  0  0
  -11.5770    5.6820   10.5960 N   0  0  0  0  0  0  0  0  0  0  0  0
  -12.4690    4.7490   10.1080 N   0  0  0  0  0  0  0  0  0  0  0  0
  -12.0160    4.1880    8.9920 N   0  0  0  0  0  0  0  0  0  0  0  0
  -10.8400    4.7900    8.7610 N   0  0  0  0  0  0  0  0  0  0  0  0
   -9.9950    4.4790    7.6090 C   0  0  0  0  0  0  0  0  0  0  0  0
   -8.6630    5.2070    7.7200 C   0  0  0  0  0  0  0  0  0  0  0  0
  -10.7490    4.8610    6.3730 C   0  0  0  0  0  0  0  0  0  0  0  0
  -11.0350    6.2020    6.1170 C   0  0  0  0  0  0  0  0  0  0  0  0
  -11.7370    6.5580    4.9650 C   0  0  0  0  0  0  0  0  0  0  0  0
  -12.1550    5.5730    4.0710 C   0  0  0  0  0  0  0  0  0  0  0  0
  -11.8700    4.2310    4.3270 C   0  0  0  0  0  0  0  0  0  0  0  0
  -11.1660    3.8760    5.4790 C   0  0  0  0  0  0  0  0  0  0  0  0
  -12.0160    7.8660    4.7150 O   0  0  0  0  0  0  0  0  0  0  0  0
   -6.8990    7.6510    9.7710 O   0  0  0  0  0  0  0  0  0  0  0  0
   -6.8909    3.0232    5.4535 N   0  0  0  0  0  0  0  0  0  0  0  0
   -7.3294    2.3472    4.4015 N   0  0  0  0  0  0  0  0  0  0  0  0
   -8.4713    2.9393    4.0046 C   0  0  0  0  0  0  0  0  0  0  0  0
   -9.4418    2.3761    2.6029 S   0  0  0  0  0  0  0  0  0  0  0  0
   -8.5522    3.4041    1.3804 C   0  0  0  0  0  0  0  0  0  0  0  0
   -7.1436    2.9148    1.1770 C   0  0  0  0  0  0  0  0  0  0  0  0
   -6.1975    3.6845    1.4988 O   0  0  0  0  0  0  0  0  0  0  0  0
   -6.8340    1.5675    0.6225 C   0  0  0  0  0  0  0  0  0  0  0  0
   -7.8275    0.7725    0.0280 C   0  0  0  0  0  0  0  0  0  0  0  0
   -7.5160   -0.4863   -0.4849 C   0  0  0  0  0  0  0  0  0  0  0  0
   -6.2060   -0.9830   -0.4314 C   0  0  0  0  0  0  0  0  0  0  0  0
   -5.1979   -0.2064    0.1847 C   0  0  0  0  0  0  0  0  0  0  0  0
   -5.5233    1.0642    0.6960 C   0  0  0  0  0  0  0  0  0  0  0  0
   -3.7977   -0.7354    0.3791 C   0  0  0  0  0  0  0  0  0  0  0  0
   -3.0924   -0.9969   -0.9561 C   0  0  0  0  0  0  0  0  0  0  0  0
   -3.4369   -2.3738   -1.5218 C   0  0  0  0  0  0  0  0  0  0  0  0
   -4.8713   -2.4744   -1.9420 C   0  0  0  0  0  0  0  0  0  0  0  0
   -5.1441   -2.8222   -3.1221 O   0  0  0  0  0  0  0  0  0  0  0  0
   -5.9379   -2.2719   -1.0091 N   0  0  0  0  0  0  0  0  0  0  0  0
   -8.7799    3.9942    4.7825 N   0  0  0  0  0  0  0  0  0  0  0  0
   -9.9246    4.8944    4.6526 C   0  0  0  0  0  0  0  0  0  0  0  0
  1  3  4  0
  1 14  4  0
  1  2  1  0
  3  4  4  0
  4  5  4  0
  5  6  4  0
  5 22  1  0
  6  7  1  0
  6 14  4  0
  7  8  1  0
  8  9  4  0
  8 12  4  0
  9 10  4  0
 10 11  4  0
 11 12  4  0
 12 13  1  0
 13 14  1  0
 13 15  1  6
 15 16  4  0
 15 20  4  0
 16 17  4  0
 17 18  4  0
 17 21  1  0
 18 19  4  0
 19 20  4  0
 23 24  4  0
 24 25  4  0
 25 26  1  0
 26 27  1  0
 27 28  1  0
 28 29  2  0
 28 30  1  0
 30 31  4  0
 31 32  4  0
 32 33  4  0
 33 34  4  0
 34 35  4  0
 34 36  1  0
 36 37  1  0
 37 38  1  0
 38 39  1  0
 39 40  2  0
 39 41  1  0
 25 42  4  0
 42 43  1  0
 35 30  4  0
 41 33  1  0
  2 23  4  0
  2 42  4  0
M  END
$$$$

     RDKit          3D

 48 54  0  0  0  0  0  0  0  0999 V2000
   -7.6410    4.9930    6.8080 C   0  0  0  0  0  0  0  0  0  1  0  0
   -7.7310    4.0530    5.7140 C   0  0  0  0  0  0  0  0  0  2  0  0
   -6.4520    5.6300    6.8680 N   0  0  0  0  0  0  0  0  0  0  0  0
   -6.2260    6.5240    7.8670 N   0  0  0  0  0  0  0  0  0  0  0  0
   -7.1930    6.7500    8.7820 C   0  0  0  0  0  0  0  0  0  0  0  0
   -8.4240    6.1170    8.7580 C   0  0  0  0  0  0  0  0  0  0  0  0
   -9.3950    6.3570    9.7450 N   0  0  0  0  0  0  0  0  0  0  0  0
  -10.5620    5.6840    9.7600 C   0  0  0  0  0  0  0  0  0  0  0  0
  -11.5770    5.6820   10.5960 N   0  0  0  0  0  0  0  0  0  0  0  0
  -12.4690    4.7490   10.1080 N   0  0  0  0  0  0  0  0  0  0  0  0
  -12.0160    4.1880    8.9920 N   0  0  0  0  0  0  0  0  0  0  0  0
  -10.8400    4.7900    8.7610 N   0  0  0  0  0  0  0  0  0  0  0  0
   -9.9950    4.4790    7.6090 C   0  0  0  0  0  0  0  0  0  0  0  0
   -8.6630    5.2070    7.7200 C   0  0  0  0  0  0  0  0  0  0  0  0
  -10.7490    4.8610    6.3730 C   0  0  0  0  0  0  0  0  0  0  0  0
  -11.0350    6.2020    6.1170 C   0  0  0  0  0  0  0  0  0  0  0  0
  -11.7370    6.5580    4.9650 C   0  0  0  0  0  0  0  0  0  0  0  0
  -12.1550    5.5730    4.0710 C   0  0  0  0  0  0  0  0  0  0  0  0
  -11.8700    4.2310    4.3270 C   0  0  0  0  0  0  0  0  0  0  0  0
  -11.1660    3.8760    5.4790 C   0  0  0  0  0  0  0  0  0  0  0  0
  -12.0160    7.8660    4.7150 O   0  0  0  0  0  0  0  0  0  0  0  0
   -6.8990    7.6510    9.7710 O   0  0  0  0  0  0  0  0  0  0  0  0
   -6.9032    3.0111    5.4632 N   0  0  0  0  0  0  0  0  0  0  0  0
   -7.3296    2.3791    4.3823 N   0  0  0  0  0  0  0  0  0  0  0  0
   -8.4428    2.9960    3.9530 C   0  0  0  0  0  0  0  0  0  0  0  0
   -9.2553    2.5539    2.5988 S   0  0  0  0  0  0  0  0  0  0  0  0
   -8.7704    4.0292    4.7589 N   0  0  0  0  0  0  0  0  0  0  0  0
   -9.7838    5.0705    4.5350 C   0  0  0  0  0  0  0  0  0  0  0  0
   -9.1664    6.3062    3.8674 C   0  0  0  0  0  0  0  0  0  0  0  0
   -8.8078    6.0287    2.4386 C   0  0  0  0  0  0  0  0  0  0  0  0
   -9.7210    6.0060    1.5689 O   0  0  0  0  0  0  0  0  0  0  0  0
   -7.4516    5.7208    2.0820 N   0  0  0  0  0  0  0  0  0  0  0  0
   -7.0032    5.5491    0.7277 C   0  0  0  0  0  0  0  0  0  0  0  0
   -6.0350    4.5784    0.4383 C   0  0  0  0  0  0  0  0  0  0  0  0
   -5.5748    4.4074   -0.8700 C   0  0  0  0  0  0  0  0  0  0  0  0
   -6.0590    5.2155   -1.9111 C   0  0  0  0  0  0  0  0  0  0  0  0
   -5.6071    4.9747   -3.2568 N   0  0  0  0  0  0  0  0  0  0  0  0
   -5.7495    5.9146   -4.3359 C   0  0  0  0  0  0  0  0  0  0  0  0
   -5.6358    7.1501   -4.1139 O   0  0  0  0  0  0  0  0  0  0  0  0
   -5.9990    5.4629   -5.6746 N   0  0  0  0  0  0  0  0  0  0  0  0
   -6.2515    4.0890   -5.9805 C   0  0  0  0  0  0  0  0  0  0  0  0
   -7.5619    3.6519   -6.2153 C   0  0  0  0  0  0  0  0  0  0  0  0
   -7.8075    2.3099   -6.5243 C   0  0  0  0  0  0  0  0  0  0  0  0
   -6.7446    1.4042   -6.6067 C   0  0  0  0  0  0  0  0  0  0  0  0
   -5.4335    1.8422   -6.3914 C   0  0  0  0  0  0  0  0  0  0  0  0
   -5.1844    3.1833   -6.0854 C   0  0  0  0  0  0  0  0  0  0  0  0
   -7.0227    6.1998   -1.6182 C   0  0  0  0  0  0  0  0  0  0  0  0
   -7.4814    6.3707   -0.3085 C   0  0  0  0  0  0  0  0  0  0  0  0
  1  3  4  0
  1 14  4  0
  1  2  1  0
  3  4  4  0
  4  5  4  0
  5  6  4  0
  5 22  1  0
  6  7  1  0
  6 14  4  0
  7  8  1  0
  8  9  4  0
  8 12  4  0
  9 10  4  0
 10 11  4  0
 11 12  4  0
 12 13  1  0
 13 14  1  0
 13 15  1  6
 15 16  4  0
 15 20  4  0
 16 17  4  0
 17 18  4  0
 17 21  1  0
 18 19  4  0
 19 20  4  0
 23 24  4  0
 24 25  4  0
 25 26  2  0
 25 27  4  0
 27 28  1  0
 28 29  1  0
 29 30  1  0
 30 31  2  0
 30 32  1  0
 32 33  1  0
 33 34  4  0
 34 35  4  0
 35 36  4  0
 36 37  1  0
 37 38  1  0
 38 39  2  0
 38 40  1  0
 40 41  1  0
 41 42  4  0
 42 43  4  0
 43 44  4  0
 44 45  4  0
 45 46  4  0
 36 47  4  0
 47 48  4  0
 48 33  4  0
 46 41  4  0
  2 23  4  0
  2 27  4  0
M  END
$$$$

     RDKit          3D

 47 54  0  0  0  0  0  0  0  0999 V2000
   -7.6410    4.9930    6.8080 C   0  0  0  0  0  0  0  0  0  1  0  0
   -7.7310    4.0530    5.7140 C   0  0  0  0  0  0  0  0  0  2  0  0
   -6.4520    5.6300    6.8680 N   0  0  0  0  0  0  0  0  0  0  0  0
   -6.2260    6.5240    7.8670 N   0  0  0  0  0  0  0  0  0  0  0  0
   -7.1930    6.7500    8.7820 C   0  0  0  0  0  0  0  0  0  0  0  0
   -8.4240    6.1170    8.7580 C   0  0  0  0  0  0  0  0  0  0  0  0
   -9.3950    6.3570    9.7450 N   0  0  0  0  0  0  0  0  0  0  0  0
  -10.5620    5.6840    9.7600 C   0  0  0  0  0  0  0  0  0  0  0  0
  -11.5770    5.6820   10.5960 N   0  0  0  0  0  0  0  0  0  0  0  0
  -12.4690    4.7490   10.1080 N   0  0  0  0  0  0  0  0  0  0  0  0
  -12.0160    4.1880    8.9920 N   0  0  0  0  0  0  0  0  0  0  0  0
  -10.8400    4.7900    8.7610 N   0  0  0  0  0  0  0  0  0  0  0  0
   -9.9950    4.4790    7.6090 C   0  0  0  0  0  0  0  0  0  0  0  0
   -8.6630    5.2070    7.7200 C   0  0  0  0  0  0  0  0  0  0  0  0
  -10.7490    4.8610    6.3730 C   0  0  0  0  0  0  0  0  0  0  0  0
  -11.0350    6.2020    6.1170 C   0  0  0  0  0  0  0  0  0  0  0  0
  -11.7370    6.5580    4.9650 C   0  0  0  0  0  0  0  0  0  0  0  0
  -12.1550    5.5730    4.0710 C   0  0  0  0  0  0  0  0  0  0  0  0
  -11.8700    4.2310    4.3270 C   0  0  0  0  0  0  0  0  0  0  0  0
  -11.1660    3.8760    5.4790 C   0  0  0  0  0  0  0  0  0  0  0  0
  -12.0160    7.8660    4.7150 O   0  0  0  0  0  0  0  0  0  0  0  0
   -6.8990    7.6510    9.7710 O   0  0  0  0  0  0  0  0  0  0  0  0
   -6.9244    2.9894    5.4908 N   0  0  0  0  0  0  0  0  0  0  0  0
   -7.2962    2.3646    4.3830 N   0  0  0  0  0  0  0  0  0  0  0  0
   -6.6613    1.1528    3.8679 C   0  0  0  0  0  0  0  0  0  0  0  0
   -5.1604    1.2595    3.9433 C   0  0  0  0  0  0  0  0  0  0  0  0
   -4.4167    0.3389    4.7012 C   0  0  0  0  0  0  0  0  0  0  0  0
   -3.0205    0.4259    4.7465 C   0  0  0  0  0  0  0  0  0  0  0  0
   -2.3581    1.4333    4.0364 C   0  0  0  0  0  0  0  0  0  0  0  0
   -3.0915    2.3552    3.2852 C   0  0  0  0  0  0  0  0  0  0  0  0
   -4.4875    2.2684    3.2327 C   0  0  0  0  0  0  0  0  0  0  0  0
   -8.3874    2.9573    3.8624 C   0  0  0  0  0  0  0  0  0  0  0  0
   -8.7216    4.0308    4.6629 C   0  0  0  0  0  0  0  0  0  0  0  0
   -9.8105    4.9991    4.4157 C   0  0  0  0  0  0  0  0  0  0  0  0
  -10.4093    5.5260    5.3914 O   0  0  0  0  0  0  0  0  0  0  0  0
  -10.2039    5.3441    3.0744 N   0  0  0  0  0  0  0  0  0  0  0  0
   -9.1652    5.5987    2.0621 C   0  0  0  0  0  0  0  0  0  0  0  0
   -9.7246    6.3814    0.8716 C   0  0  0  0  0  0  0  0  0  0  0  0
  -10.9615    5.7431    0.3977 N   0  0  0  0  0  0  0  0  0  0  0  0
  -11.1846    5.4711   -1.0006 C   0  0  0  0  0  0  0  0  0  0  0  0
  -12.2779    4.8224   -1.4600 N   0  0  0  0  0  0  0  0  0  0  0  0
  -12.2646    4.6969   -2.8142 C   0  0  0  0  0  0  0  0  0  0  0  0
  -13.3927    4.0596   -3.5567 C   0  0  0  0  0  0  0  0  0  0  0  0
  -11.1642    5.2639   -3.4536 C   0  0  0  0  0  0  0  0  0  0  0  0
  -10.1697    5.9261   -2.2709 S   0  0  0  0  0  0  0  0  0  0  0  0
  -11.9869    5.3356    1.3705 C   0  0  0  0  0  0  0  0  0  0  0  0
  -11.5995    5.7130    2.8063 C   0  0  0  0  0  0  0  0  0  0  0  0
  1  3  4  0
  1 14  4  0
  1  2  1  0
  3  4  4  0
  4  5  4  0
  5  6  4  0
  5 22  1  0
  6  7  1  0
  6 14  4  0
  7  8  1  0
  8  9  4  0
  8 12  4  0
  9 10  4  0
 10 11  4  0
 11 12  4  0
 12 13  1  0
 13 14  1  0
 13 15  1  6
 15 16  4  0
 15 20  4  0
 16 17  4  0
 17 18  4  0
 17 21  1  0
 18 19  4  0
 19 20  4  0
 23 24  4  0
 24 25  1  0
 25 26  1  0
 26 27  4  0
 27 28  4  0
 28 29  4  0
 29 30  4  0
 30 31  4  0
 24 32  4  0
 32 33  4  0
 33 34  1  0
 34 35  2  0
 34 36  1  0
 36 37  1  0
 37 38  1  0
 38 39  1  0
 39 40  1  0
 40 41  4  0
 41 42  4  0
 42 43  1  0
 42 44  4  0
 44 45  4  0
 39 46  1  0
 46 47  1  0
 47 36  1  0
 31 26  4  0
 45 40  4  0
  2 23  4  0
  2 33  4  0
M  END
$$$$

     RDKit          3D

 48 55  0  0  0  0  0  0  0  0999 V2000
   -7.6410    4.9930    6.8080 C   0  0  0  0  0  0  0  0  0  1  0  0
   -7.7310    4.0530    5.7140 C   0  0  0  0  0  0  0  0  0  2  0  0
   -6.4520    5.6300    6.8680 N   0  0  0  0  0  0  0  0  0  0  0  0
   -6.2260    6.5240    7.8670 N   0  0  0  0  0  0  0  0  0  0  0  0
   -7.1930    6.7500    8.7820 C   0  0  0  0  0  0  0  0  0  0  0  0
   -8.4240    6.1170    8.7580 C   0  0  0  0  0  0  0  0  0  0  0  0
   -9.3950    6.3570    9.7450 N   0  0  0  0  0  0  0  0  0  0  0  0
  -10.5620    5.6840    9.7600 C   0  0  0  0  0  0  0  0  0  0  0  0
  -11.5770    5.6820   10.5960 N   0  0  0  0  0  0  0  0  0  0  0  0
  -12.4690    4.7490   10.1080 N   0  0  0  0  0  0  0  0  0  0  0  0
  -12.0160    4.1880    8.9920 N   0  0  0  0  0  0  0  0  0  0  0  0
  -10.8400    4.7900    8.7610 N   0  0  0  0  0  0  0  0  0  0  0  0
   -9.9950    4.4790    7.6090 C   0  0  0  0  0  0  0  0  0  0  0  0
   -8.6630    5.2070    7.7200 C   0  0  0  0  0  0  0  0  0  0  0  0
  -10.7490    4.8610    6.3730 C   0  0  0  0  0  0  0  0  0  0  0  0
  -11.0350    6.2020    6.1170 C   0  0  0  0  0  0  0  0  0  0  0  0
  -11.7370    6.5580    4.9650 C   0  0  0  0  0  0  0  0  0  0  0  0
  -12.1550    5.5730    4.0710 C   0  0  0  0  0  0  0  0  0  0  0  0
  -11.8700    4.2310    4.3270 C   0  0  0  0  0  0  0  0  0  0  0  0
  -11.1660    3.8760    5.4790 C   0  0  0  0  0  0  0  0  0  0  0  0
  -12.0160    7.8660    4.7150 O   0  0  0  0  0  0  0  0  0  0  0  0
   -6.8990    7.6510    9.7710 O   0  0  0  0  0  0  0  0  0  0  0  0
   -6.8791    2.9613    5.4893 C   0  0  0  0  0  0  0  0  0  0  0  0
   -7.4309    1.9600    4.2454 S   0  0  0  0  0  0  0  0  0  0  0  0
   -8.8089    2.8582    3.9475 C   0  0  0  0  0  0  0  0  0  0  0  0
   -9.7595    2.5912    3.0265 N   0  0  0  0  0  0  0  0  0  0  0  0
  -10.8197    3.4333    2.9075 C   0  0  0  0  0  0  0  0  0  0  0  0
  -10.9181    4.5591    3.6904 N   0  0  0  0  0  0  0  0  0  0  0  0
  -12.0762    5.4577    3.5200 C   0  0  0  0  0  0  0  0  0  0  0  0
  -11.7045    6.7106    2.7038 C   0  0  0  0  0  0  0  0  0  0  0  0
  -11.5652    6.4713    1.2272 C   0  0  0  0  0  0  0  0  0  0  0  0
  -11.8453    5.3509    0.7195 O   0  0  0  0  0  0  0  0  0  0  0  0
  -11.1443    7.5302    0.4157 O   0  0  0  0  0  0  0  0  0  0  0  0
  -11.0186    7.4343   -1.0020 C   0  0  0  0  0  0  0  0  0  0  0  0
   -9.8291    6.5933   -1.3754 C   0  0  0  0  0  0  0  0  0  0  0  0
   -8.7167    6.8656   -0.8500 O   0  0  0  0  0  0  0  0  0  0  0  0
   -9.9398    5.5053   -2.3154 N   0  0  0  0  0  0  0  0  0  0  0  0
  -11.1950    4.8360   -2.6746 C   0  0  0  0  0  0  0  0  0  0  0  0
  -10.8028    3.5869   -3.4953 C   0  0  0  0  0  0  0  0  0  0  0  0
   -9.3278    3.7156   -3.6328 C   0  0  0  0  0  0  0  0  0  0  0  0
   -8.4677    2.9035   -4.3734 C   0  0  0  0  0  0  0  0  0  0  0  0
   -7.1068    3.2413   -4.4269 C   0  0  0  0  0  0  0  0  0  0  0  0
   -6.6329    4.3789   -3.7488 C   0  0  0  0  0  0  0  0  0  0  0  0
   -7.5157    5.1790   -3.0064 C   0  0  0  0  0  0  0  0  0  0  0  0
   -8.8703    4.8126   -2.9519 C   0  0  0  0  0  0  0  0  0  0  0  0
   -9.9470    4.8375    4.6274 C   0  0  0  0  0  0  0  0  0  0  0  0
  -10.0129    5.8886    5.3206 O   0  0  0  0  0  0  0  0  0  0  0  0
   -8.8759    3.9470    4.7887 C   0  0  0  0  0  0  0  0  0  0  0  0
  1  3  4  0
  1 14  4  0
  1  2  1  0
  3  4  4  0
  4  5  4  0
  5  6  4  0
  5 22  1  0
  6  7  1  0
  6 14  4  0
  7  8  1  0
  8  9  4  0
  8 12  4  0
  9 10  4  0
 10 11  4  0
 11 12  4  0
 12 13  1  0
 13 14  1  0
 13 15  1  6
 15 16  4  0
 15 20  4  0
 16 17  4  0
 17 18  4  0
 17 21  1  0
 18 19  4  0
 19 20  4  0
 23 24  4  0
 24 25  4  0
 25 26  4  0
 26 27  4  0
 27 28  4  0
 28 29  1  0
 29 30  1  0
 30 31  1  0
 31 32  2  0
 31 33  1  0
 33 34  1  0
 34 35  1  0
 35 36  2  0
 35 37  1  0
 37 38  1  0
 38 39  1  0
 39 40  1  0
 40 41  4  0
 41 42  4  0
 42 43  4  0
 43 44  4  0
 44 45  4  0
 28 46  4  0
 46 47  2  0
 46 48  4  0
 48 25  4  0
 45 37  1  0
 45 40  4  0
  2 23  4  0
  2 48  4  0
M  END
$$$$

     RDKit          3D

 48 55  0  0  0  0  0  0  0  0999 V2000
   -7.6410    4.9930    6.8080 C   0  0  0  0  0  0  0  0  0  1  0  0
   -7.7310    4.0530    5.7140 C   0  0  0  0  0  0  0  0  0  2  0  0
   -6.4520    5.6300    6.8680 N   0  0  0  0  0  0  0  0  0  0  0  0
   -6.2260    6.5240    7.8670 N   0  0  0  0  0  0  0  0  0  0  0  0
   -7.1930    6.7500    8.7820 C   0  0  0  0  0  0  0  0  0  0  0  0
   -8.4240    6.1170    8.7580 C   0  0  0  0  0  0  0  0  0  0  0  0
   -9.3950    6.3570    9.7450 N   0  0  0  0  0  0  0  0  0  0  0  0
  -10.5620    5.6840    9.7600 C   0  0  0  0  0  0  0  0  0  0  0  0
  -11.5770    5.6820   10.5960 N   0  0  0  0  0  0  0  0  0  0  0  0
  -12.4690    4.7490   10.1080 N   0  0  0  0  0  0  0  0  0  0  0  0
  -12.0160    4.1880    8.9920 N   0  0  0  0  0  0  0  0  0  0  0  0
  -10.8400    4.7900    8.7610 N   0  0  0  0  0  0  0  0  0  0  0  0
   -9.9950    4.4790    7.6090 C   0  0  0  0  0  0  0  0  0  0  0  0
   -8.6630    5.2070    7.7200 C   0  0  0  0  0  0  0  0  0  0  0  0
  -10.7490    4.8610    6.3730 C   0  0  0  0  0  0  0  0  0  0  0  0
  -11.0350    6.2020    6.1170 C   0  0  0  0  0  0  0  0  0  0  0  0
  -11.7370    6.5580    4.9650 C   0  0  0  0  0  0  0  0  0  0  0  0
  -12.1550    5.5730    4.0710 C   0  0  0  0  0  0  0  0  0  0  0  0
  -11.8700    4.2310    4.3270 C   0  0  0  0  0  0  0  0  0  0  0  0
  -11.1660    3.8760    5.4790 C   0  0  0  0  0  0  0  0  0  0  0  0
  -12.0160    7.8660    4.7150 O   0  0  0  0  0  0  0  0  0  0  0  0
   -6.8990    7.6510    9.7710 O   0  0  0  0  0  0  0  0  0  0  0  0
   -6.9310    2.9122    5.5423 C   0  0  0  0  0  0  0  0  0  0  0  0
   -7.4877    1.9240    4.2852 S   0  0  0  0  0  0  0  0  0  0  0  0
   -8.8002    2.8941    3.9199 C   0  0  0  0  0  0  0  0  0  0  0  0
   -9.7278    2.6687    2.9622 N   0  0  0  0  0  0  0  0  0  0  0  0
  -10.7378    3.5650    2.7995 C   0  0  0  0  0  0  0  0  0  0  0  0
  -10.8159    4.6954    3.5836 N   0  0  0  0  0  0  0  0  0  0  0  0
  -11.9217    5.6407    3.3519 C   0  0  0  0  0  0  0  0  0  0  0  0
  -11.6249    6.5246    2.1333 C   0  0  0  0  0  0  0  0  0  0  0  0
  -12.7153    7.5458    1.9361 C   0  0  0  0  0  0  0  0  0  0  0  0
  -12.4587    8.7611    2.1584 O   0  0  0  0  0  0  0  0  0  0  0  0
  -14.0137    7.1857    1.5198 O   0  0  0  0  0  0  0  0  0  0  0  0
  -14.3200    6.0072    0.7576 C   0  0  0  0  0  0  0  0  0  0  0  0
  -14.2517    6.2903   -0.7190 C   0  0  0  0  0  0  0  0  0  0  0  0
  -13.9036    7.4370   -1.1064 O   0  0  0  0  0  0  0  0  0  0  0  0
  -14.6098    5.2666   -1.6745 N   0  0  0  0  0  0  0  0  0  0  0  0
  -14.9824    3.8972   -1.3052 C   0  0  0  0  0  0  0  0  0  0  0  0
  -15.3348    3.1670   -2.6208 C   0  0  0  0  0  0  0  0  0  0  0  0
  -15.1043    4.2058   -3.6614 C   0  0  0  0  0  0  0  0  0  0  0  0
  -15.2799    4.0794   -5.0363 C   0  0  0  0  0  0  0  0  0  0  0  0
  -15.0378    5.1968   -5.8460 C   0  0  0  0  0  0  0  0  0  0  0  0
  -14.6329    6.4141   -5.2715 C   0  0  0  0  0  0  0  0  0  0  0  0
  -14.4650    6.5209   -3.8834 C   0  0  0  0  0  0  0  0  0  0  0  0
  -14.7020    5.3861   -3.0915 C   0  0  0  0  0  0  0  0  0  0  0  0
   -9.8596    4.9422    4.5447 C   0  0  0  0  0  0  0  0  0  0  0  0
   -9.8821    6.0139    5.2157 O   0  0  0  0  0  0  0  0  0  0  0  0
   -8.8414    3.9971    4.7497 C   0  0  0  0  0  0  0  0  0  0  0  0
  1  3  4  0
  1 14  4  0
  1  2  1  0
  3  4  4  0
  4  5  4  0
  5  6  4  0
  5 22  1  0
  6  7  1  0
  6 14  4  0
  7  8  1  0
  8  9  4  0
  8 12  4  0
  9 10  4  0
 10 11  4  0
 11 12  4  0
 12 13  1  0
 13 14  1  0
 13 15  1  6
 15 16  4  0
 15 20  4  0
 16 17  4  0
 17 18  4  0
 17 21  1  0
 18 19  4  0
 19 20  4  0
 23 24  4  0
 24 25  4  0
 25 26  4  0
 26 27  4  0
 27 28  4  0
 28 29  1  0
 29 30  1  0
 30 31  1  0
 31 32  2  0
 31 33  1  0
 33 34  1  0
 34 35  1  0
 35 36  2  0
 35 37  1  0
 37 38  1  0
 38 39  1  0
 39 40  1  0
 40 41  4  0
 41 42  4  0
 42 43  4  0
 43 44  4  0
 44 45  4  0
 28 46  4  0
 46 47  2  0
 46 48  4  0
 48 25  4  0
 45 37  1  0
 45 40  4  0
  2 23  4  0
  2 48  4  0
M  END
$$$$

     RDKit          3D

 42 47  0  0  0  0  0  0  0  0999 V2000
   -7.6410    4.9930    6.8080 C   0  0  0  0  0  0  0  0  0  1  0  0
   -7.7310    4.0530    5.7140 C   0  0  0  0  0  0  0  0  0  2  0  0
   -6.4520    5.6300    6.8680 N   0  0  0  0  0  0  0  0  0  0  0  0
   -6.2260    6.5240    7.8670 N   0  0  0  0  0  0  0  0  0  0  0  0
   -7.1930    6.7500    8.7820 C   0  0  0  0  0  0  0  0  0  0  0  0
   -8.4240    6.1170    8.7580 C   0  0  0  0  0  0  0  0  0  0  0  0
   -9.3950    6.3570    9.7450 N   0  0  0  0  0  0  0  0  0  0  0  0
  -10.5620    5.6840    9.7600 C   0  0  0  0  0  0  0  0  0  0  0  0
  -11.5770    5.6820   10.5960 N   0  0  0  0  0  0  0  0  0  0  0  0
  -12.4690    4.7490   10.1080 N   0  0  0  0  0  0  0  0  0  0  0  0
  -12.0160    4.1880    8.9920 N   0  0  0  0  0  0  0  0  0  0  0  0
  -10.8400    4.7900    8.7610 N   0  0  0  0  0  0  0  0  0  0  0  0
   -9.9950    4.4790    7.6090 C   0  0  0  0  0  0  0  0  0  0  0  0
   -8.6630    5.2070    7.7200 C   0  0  0  0  0  0  0  0  0  0  0  0
  -10.7490    4.8610    6.3730 C   0  0  0  0  0  0  0  0  0  0  0  0
  -11.0350    6.2020    6.1170 C   0  0  0  0  0  0  0  0  0  0  0  0
  -11.7370    6.5580    4.9650 C   0  0  0  0  0  0  0  0  0  0  0  0
  -12.1550    5.5730    4.0710 C   0  0  0  0  0  0  0  0  0  0  0  0
  -11.8700    4.2310    4.3270 C   0  0  0  0  0  0  0  0  0  0  0  0
  -11.1660    3.8760    5.4790 C   0  0  0  0  0  0  0  0  0  0  0  0
  -12.0160    7.8660    4.7150 O   0  0  0  0  0  0  0  0  0  0  0  0
   -6.8990    7.6510    9.7710 O   0  0  0  0  0  0  0  0  0  0  0  0
   -6.7849    3.1951    5.2810 N   0  0  0  0  0  0  0  0  0  0  0  0
   -7.2617    2.4487    4.2961 N   0  0  0  0  0  0  0  0  0  0  0  0
   -8.5412    2.8204    4.1092 C   0  0  0  0  0  0  0  0  0  0  0  0
   -9.6135    2.0722    2.8801 S   0  0  0  0  0  0  0  0  0  0  0  0
  -10.2669    0.8284    4.0399 C   0  0  0  0  0  0  0  0  0  0  0  0
  -11.1675   -0.1170    3.3077 C   0  0  0  0  0  0  0  0  0  0  0  0
  -12.2322    0.3196    2.7920 O   0  0  0  0  0  0  0  0  0  0  0  0
  -10.8081   -1.5009    3.1731 N   0  0  0  0  0  0  0  0  0  0  0  0
  -11.6632   -2.4784    2.5573 C   0  0  0  0  0  0  0  0  0  0  0  0
  -13.0087   -2.5697    2.9575 C   0  0  0  0  0  0  0  0  0  0  0  0
  -13.8378   -3.5680    2.4437 C   0  0  0  0  0  0  0  0  0  0  0  0
  -15.1300   -3.6475    2.8448 F   0  0  0  0  0  0  0  0  0  0  0  0
  -13.3314   -4.4956    1.5346 C   0  0  0  0  0  0  0  0  0  0  0  0
  -11.9973   -4.4235    1.1291 C   0  0  0  0  0  0  0  0  0  0  0  0
  -11.1486   -3.4148    1.6226 C   0  0  0  0  0  0  0  0  0  0  0  0
   -9.7573   -3.3446    1.1120 C   0  0  0  0  0  0  0  0  0  0  0  0
   -9.1069   -2.2668    1.1472 O   0  0  0  0  0  0  0  0  0  0  0  0
   -9.1670   -4.4645    0.5367 O   0  0  0  0  0  0  0  0  0  0  0  0
   -8.9013    3.8067    4.9531 N   0  0  0  0  0  0  0  0  0  0  0  0
  -10.1960    4.4813    5.0326 C   0  0  0  0  0  0  0  0  0  0  0  0
  1  3  4  0
  1 14  4  0
  1  2  1  0
  3  4  4  0
  4  5  4  0
  5  6  4  0
  5 22  1  0
  6  7  1  0
  6 14  4  0
  7  8  1  0
  8  9  4  0
  8 12  4  0
  9 10  4  0
 10 11  4  0
 11 12  4  0
 12 13  1  0
 13 14  1  0
 13 15  1  6
 15 16  4  0
 15 20  4  0
 16 17  4  0
 17 18  4  0
 17 21  1  0
 18 19  4  0
 19 20  4  0
 23 24  4  0
 24 25  4  0
 25 26  1  0
 26 27  1  0
 27 28  1  0
 28 29  2  0
 28 30  1  0
 30 31  1  0
 31 32  4  0
 32 33  4  0
 33 34  1  0
 33 35  4  0
 35 36  4  0
 36 37  4  0
 37 38  1  0
 38 39  2  0
 38 40  1  0
 25 41  4  0
 41 42  1  0
 37 31  4  0
  2 23  4  0
  2 41  4  0
M  CHG  1  40  -1
M  END
$$$$

     RDKit          3D

 42 47  0  0  0  0  0  0  0  0999 V2000
   -7.6410    4.9930    6.8080 C   0  0  0  0  0  0  0  0  0  1  0  0
   -7.7310    4.0530    5.7140 C   0  0  0  0  0  0  0  0  0  2  0  0
   -6.4520    5.6300    6.8680 N   0  0  0  0  0  0  0  0  0  0  0  0
   -6.2260    6.5240    7.8670 N   0  0  0  0  0  0  0  0  0  0  0  0
   -7.1930    6.7500    8.7820 C   0  0  0  0  0  0  0  0  0  0  0  0
   -8.4240    6.1170    8.7580 C   0  0  0  0  0  0  0  0  0  0  0  0
   -9.3950    6.3570    9.7450 N   0  0  0  0  0  0  0  0  0  0  0  0
  -10.5620    5.6840    9.7600 C   0  0  0  0  0  0  0  0  0  0  0  0
  -11.5770    5.6820   10.5960 N   0  0  0  0  0  0  0  0  0  0  0  0
  -12.4690    4.7490   10.1080 N   0  0  0  0  0  0  0  0  0  0  0  0
  -12.0160    4.1880    8.9920 N   0  0  0  0  0  0  0  0  0  0  0  0
  -10.8400    4.7900    8.7610 N   0  0  0  0  0  0  0  0  0  0  0  0
   -9.9950    4.4790    7.6090 C   0  0  0  0  0  0  0  0  0  0  0  0
   -8.6630    5.2070    7.7200 C   0  0  0  0  0  0  0  0  0  0  0  0
  -10.7490    4.8610    6.3730 C   0  0  0  0  0  0  0  0  0  0  0  0
  -11.0350    6.2020    6.1170 C   0  0  0  0  0  0  0  0  0  0  0  0
  -11.7370    6.5580    4.9650 C   0  0  0  0  0  0  0  0  0  0  0  0
  -12.1550    5.5730    4.0710 C   0  0  0  0  0  0  0  0  0  0  0  0
  -11.8700    4.2310    4.3270 C   0  0  0  0  0  0  0  0  0  0  0  0
  -11.1660    3.8760    5.4790 C   0  0  0  0  0  0  0  0  0  0  0  0
  -12.0160    7.8660    4.7150 O   0  0  0  0  0  0  0  0  0  0  0  0
   -6.8990    7.6510    9.7710 O   0  0  0  0  0  0  0  0  0  0  0  0
   -6.7787    3.2088    5.2682 N   0  0  0  0  0  0  0  0  0  0  0  0
   -7.2530    2.4673    4.2785 N   0  0  0  0  0  0  0  0  0  0  0  0
   -8.5377    2.8261    4.1036 C   0  0  0  0  0  0  0  0  0  0  0  0
   -9.6053    2.0962    2.8588 S   0  0  0  0  0  0  0  0  0  0  0  0
  -10.2110    0.7610    3.9477 C   0  0  0  0  0  0  0  0  0  0  0  0
   -9.1333   -0.2548    4.2152 C   0  0  0  0  0  0  0  0  0  0  0  0
   -8.7464   -0.4329    5.4011 O   0  0  0  0  0  0  0  0  0  0  0  0
   -8.5064   -0.9976    3.1575 N   0  0  0  0  0  0  0  0  0  0  0  0
   -9.0007   -1.0252    1.8120 C   0  0  0  0  0  0  0  0  0  0  0  0
  -10.2663   -1.5798    1.5676 C   0  0  0  0  0  0  0  0  0  0  0  0
  -10.7774   -1.6394    0.2715 C   0  0  0  0  0  0  0  0  0  0  0  0
  -12.0056   -2.1673    0.0499 F   0  0  0  0  0  0  0  0  0  0  0  0
  -10.0251   -1.1534   -0.7962 C   0  0  0  0  0  0  0  0  0  0  0  0
   -8.7595   -0.6109   -0.5722 C   0  0  0  0  0  0  0  0  0  0  0  0
   -8.2253   -0.5347    0.7285 C   0  0  0  0  0  0  0  0  0  0  0  0
   -6.8874    0.0870    0.9143 C   0  0  0  0  0  0  0  0  0  0  0  0
   -6.3880    0.2339    2.0601 O   0  0  0  0  0  0  0  0  0  0  0  0
   -6.1628    0.5280   -0.1865 O   0  0  0  0  0  0  0  0  0  0  0  0
   -8.9034    3.8010    4.9585 N   0  0  0  0  0  0  0  0  0  0  0  0
  -10.2024    4.4682    5.0433 C   0  0  0  0  0  0  0  0  0  0  0  0
  1  3  4  0
  1 14  4  0
  1  2  1  0
  3  4  4  0
  4  5  4  0
  5  6  4  0
  5 22  1  0
  6  7  1  0
  6 14  4  0
  7  8  1  0
  8  9  4  0
  8 12  4  0
  9 10  4  0
 10 11  4  0
 11 12  4  0
 12 13  1  0
 13 14  1  0
 13 15  1  6
 15 16  4  0
 15 20  4  0
 16 17  4  0
 17 18  4  0
 17 21  1  0
 18 19  4  0
 19 20  4  0
 23 24  4  0
 24 25  4  0
 25 26  1  0
 26 27  1  0
 27 28  1  0
 28 29  2  0
 28 30  1  0
 30 31  1  0
 31 32  4  0
 32 33  4  0
 33 34  1  0
 33 35  4  0
 35 36  4  0
 36 37  4  0
 37 38  1  0
 38 39  2  0
 38 40  1  0
 25 41  4  0
 41 42  1  0
 37 31  4  0
  2 23  4  0
  2 41  4  0
M  CHG  1  40  -1
M  END
$$$$

     RDKit          3D

 42 47  0  0  0  0  0  0  0  0999 V2000
   -7.6410    4.9930    6.8080 C   0  0  0  0  0  0  0  0  0  1  0  0
   -7.7310    4.0530    5.7140 C   0  0  0  0  0  0  0  0  0  2  0  0
   -6.4520    5.6300    6.8680 N   0  0  0  0  0  0  0  0  0  0  0  0
   -6.2260    6.5240    7.8670 N   0  0  0  0  0  0  0  0  0  0  0  0
   -7.1930    6.7500    8.7820 C   0  0  0  0  0  0  0  0  0  0  0  0
   -8.4240    6.1170    8.7580 C   0  0  0  0  0  0  0  0  0  0  0  0
   -9.3950    6.3570    9.7450 N   0  0  0  0  0  0  0  0  0  0  0  0
  -10.5620    5.6840    9.7600 C   0  0  0  0  0  0  0  0  0  0  0  0
  -11.5770    5.6820   10.5960 N   0  0  0  0  0  0  0  0  0  0  0  0
  -12.4690    4.7490   10.1080 N   0  0  0  0  0  0  0  0  0  0  0  0
  -12.0160    4.1880    8.9920 N   0  0  0  0  0  0  0  0  0  0  0  0
  -10.8400    4.7900    8.7610 N   0  0  0  0  0  0  0  0  0  0  0  0
   -9.9950    4.4790    7.6090 C   0  0  0  0  0  0  0  0  0  0  0  0
   -8.6630    5.2070    7.7200 C   0  0  0  0  0  0  0  0  0  0  0  0
  -10.7490    4.8610    6.3730 C   0  0  0  0  0  0  0  0  0  0  0  0
  -11.0350    6.2020    6.1170 C   0  0  0  0  0  0  0  0  0  0  0  0
  -11.7370    6.5580    4.9650 C   0  0  0  0  0  0  0  0  0  0  0  0
  -12.1550    5.5730    4.0710 C   0  0  0  0  0  0  0  0  0  0  0  0
  -11.8700    4.2310    4.3270 C   0  0  0  0  0  0  0  0  0  0  0  0
  -11.1660    3.8760    5.4790 C   0  0  0  0  0  0  0  0  0  0  0  0
  -12.0160    7.8660    4.7150 O   0  0  0  0  0  0  0  0  0  0  0  0
   -6.8990    7.6510    9.7710 O   0  0  0  0  0  0  0  0  0  0  0  0
   -6.7910    3.1836    5.2907 N   0  0  0  0  0  0  0  0  0  0  0  0
   -7.2676    2.4420    4.3017 N   0  0  0  0  0  0  0  0  0  0  0  0
   -8.5407    2.8288    4.1025 C   0  0  0  0  0  0  0  0  0  0  0  0
   -9.6068    2.1031    2.8556 S   0  0  0  0  0  0  0  0  0  0  0  0
   -9.0629    3.2571    1.5545 C   0  0  0  0  0  0  0  0  0  0  0  0
   -9.7804    2.9533    0.2781 C   0  0  0  0  0  0  0  0  0  0  0  0
  -10.5865    3.7984   -0.1977 O   0  0  0  0  0  0  0  0  0  0  0  0
   -9.5498    1.7085   -0.3986 N   0  0  0  0  0  0  0  0  0  0  0  0
  -10.2642    1.3427   -1.5874 C   0  0  0  0  0  0  0  0  0  0  0  0
  -11.1254    0.2372   -1.5325 C   0  0  0  0  0  0  0  0  0  0  0  0
  -11.8927   -0.1210   -2.6418 C   0  0  0  0  0  0  0  0  0  0  0  0
  -12.7331   -1.1826   -2.5709 F   0  0  0  0  0  0  0  0  0  0  0  0
  -11.8024    0.6192   -3.8201 C   0  0  0  0  0  0  0  0  0  0  0  0
  -10.9302    1.7071   -3.8999 C   0  0  0  0  0  0  0  0  0  0  0  0
  -10.1359    2.0743   -2.7975 C   0  0  0  0  0  0  0  0  0  0  0  0
   -9.1583    3.1778   -2.9612 C   0  0  0  0  0  0  0  0  0  0  0  0
   -8.1583    3.2750   -2.2021 O   0  0  0  0  0  0  0  0  0  0  0  0
   -9.3132    4.1023   -3.9880 O   0  0  0  0  0  0  0  0  0  0  0  0
   -8.8975    3.8184    4.9445 N   0  0  0  0  0  0  0  0  0  0  0  0
  -10.1843    4.5095    5.0131 C   0  0  0  0  0  0  0  0  0  0  0  0
  1  3  4  0
  1 14  4  0
  1  2  1  0
  3  4  4  0
  4  5  4  0
  5  6  4  0
  5 22  1  0
  6  7  1  0
  6 14  4  0
  7  8  1  0
  8  9  4  0
  8 12  4  0
  9 10  4  0
 10 11  4  0
 11 12  4  0
 12 13  1  0
 13 14  1  0
 13 15  1  6
 15 16  4  0
 15 20  4  0
 16 17  4  0
 17 18  4  0
 17 21  1  0
 18 19  4  0
 19 20  4  0
 23 24  4  0
 24 25  4  0
 25 26  1  0
 26 27  1  0
 27 28  1  0
 28 29  2  0
 28 30  1  0
 30 31  1  0
 31 32  4  0
 32 33  4  0
 33 34  1  0
 33 35  4  0
 35 36  4  0
 36 37  4  0
 37 38  1  0
 38 39  2  0
 38 40  1  0
 25 41  4  0
 41 42  1  0
 37 31  4  0
  2 23  4  0
  2 41  4  0
M  CHG  1  40  -1
M  END
$$$$

     RDKit          3D

 42 47  0  0  0  0  0  0  0  0999 V2000
   -7.6410    4.9930    6.8080 C   0  0  0  0  0  0  0  0  0  1  0  0
   -7.7310    4.0530    5.7140 C   0  0  0  0  0  0  0  0  0  2  0  0
   -6.4520    5.6300    6.8680 N   0  0  0  0  0  0  0  0  0  0  0  0
   -6.2260    6.5240    7.8670 N   0  0  0  0  0  0  0  0  0  0  0  0
   -7.1930    6.7500    8.7820 C   0  0  0  0  0  0  0  0  0  0  0  0
   -8.4240    6.1170    8.7580 C   0  0  0  0  0  0  0  0  0  0  0  0
   -9.3950    6.3570    9.7450 N   0  0  0  0  0  0  0  0  0  0  0  0
  -10.5620    5.6840    9.7600 C   0  0  0  0  0  0  0  0  0  0  0  0
  -11.5770    5.6820   10.5960 N   0  0  0  0  0  0  0  0  0  0  0  0
  -12.4690    4.7490   10.1080 N   0  0  0  0  0  0  0  0  0  0  0  0
  -12.0160    4.1880    8.9920 N   0  0  0  0  0  0  0  0  0  0  0  0
  -10.8400    4.7900    8.7610 N   0  0  0  0  0  0  0  0  0  0  0  0
   -9.9950    4.4790    7.6090 C   0  0  0  0  0  0  0  0  0  0  0  0
   -8.6630    5.2070    7.7200 C   0  0  0  0  0  0  0  0  0  0  0  0
  -10.7490    4.8610    6.3730 C   0  0  0  0  0  0  0  0  0  0  0  0
  -11.0350    6.2020    6.1170 C   0  0  0  0  0  0  0  0  0  0  0  0
  -11.7370    6.5580    4.9650 C   0  0  0  0  0  0  0  0  0  0  0  0
  -12.1550    5.5730    4.0710 C   0  0  0  0  0  0  0  0  0  0  0  0
  -11.8700    4.2310    4.3270 C   0  0  0  0  0  0  0  0  0  0  0  0
  -11.1660    3.8760    5.4790 C   0  0  0  0  0  0  0  0  0  0  0  0
  -12.0160    7.8660    4.7150 O   0  0  0  0  0  0  0  0  0  0  0  0
   -6.8990    7.6510    9.7710 O   0  0  0  0  0  0  0  0  0  0  0  0
   -6.8124    3.1454    5.3212 N   0  0  0  0  0  0  0  0  0  0  0  0
   -7.3016    2.3928    4.3463 N   0  0  0  0  0  0  0  0  0  0  0  0
   -8.5618    2.8091    4.1284 C   0  0  0  0  0  0  0  0  0  0  0  0
   -9.6558    2.0621    2.9196 S   0  0  0  0  0  0  0  0  0  0  0  0
  -10.3423    0.8697    4.1139 C   0  0  0  0  0  0  0  0  0  0  0  0
  -11.5263    0.1788    3.5139 C   0  0  0  0  0  0  0  0  0  0  0  0
  -12.5600    0.8507    3.2429 O   0  0  0  0  0  0  0  0  0  0  0  0
  -11.5007   -1.2380    3.2805 N   0  0  0  0  0  0  0  0  0  0  0  0
  -12.6560   -1.9515    2.8185 C   0  0  0  0  0  0  0  0  0  0  0  0
  -13.2299   -2.9082    3.6693 C   0  0  0  0  0  0  0  0  0  0  0  0
  -14.4079   -3.5628    3.3112 C   0  0  0  0  0  0  0  0  0  0  0  0
  -14.9600   -4.4737    4.1505 F   0  0  0  0  0  0  0  0  0  0  0  0
  -15.0204   -3.2746    2.0931 C   0  0  0  0  0  0  0  0  0  0  0  0
  -14.4423   -2.3528    1.2165 C   0  0  0  0  0  0  0  0  0  0  0  0
  -13.2441   -1.6950    1.5512 C   0  0  0  0  0  0  0  0  0  0  0  0
  -12.6142   -0.8048    0.5447 C   0  0  0  0  0  0  0  0  0  0  0  0
  -11.4027   -0.4758    0.6377 O   0  0  0  0  0  0  0  0  0  0  0  0
  -13.3479   -0.3528   -0.5477 O   0  0  0  0  0  0  0  0  0  0  0  0
   -8.8957    3.8315    4.9394 N   0  0  0  0  0  0  0  0  0  0  0  0
  -10.1625    4.5598    4.9760 C   0  0  0  0  0  0  0  0  0  0  0  0
  1  3  4  0
  1 14  4  0
  1  2  1  0
  3  4  4  0
  4  5  4  0
  5  6  4  0
  5 22  1  0
  6  7  1  0
  6 14  4  0
  7  8  1  0
  8  9  4  0
  8 12  4  0
  9 10  4  0
 10 11  4  0
 11 12  4  0
 12 13  1  0
 13 14  1  0
 13 15  1  6
 15 16  4  0
 15 20  4  0
 16 17  4  0
 17 18  4  0
 17 21  1  0
 18 19  4  0
 19 20  4  0
 23 24  4  0
 24 25  4  0
 25 26  1  0
 26 27  1  0
 27 28  1  0
 28 29  2  0
 28 30  1  0
 30 31  1  0
 31 32  4  0
 32 33  4  0
 33 34  1  0
 33 35  4  0
 35 36  4  0
 36 37  4  0
 37 38  1  0
 38 39  2  0
 38 40  1  0
 25 41  4  0
 41 42  1  0
 37 31  4  0
  2 23  4  0
  2 41  4  0
M  CHG  1  40  -1
M  END
$$$$

     RDKit          3D

 42 47  0  0  0  0  0  0  0  0999 V2000
   -7.6410    4.9930    6.8080 C   0  0  0  0  0  0  0  0  0  1  0  0
   -7.7310    4.0530    5.7140 C   0  0  0  0  0  0  0  0  0  2  0  0
   -6.4520    5.6300    6.8680 N   0  0  0  0  0  0  0  0  0  0  0  0
   -6.2260    6.5240    7.8670 N   0  0  0  0  0  0  0  0  0  0  0  0
   -7.1930    6.7500    8.7820 C   0  0  0  0  0  0  0  0  0  0  0  0
   -8.4240    6.1170    8.7580 C   0  0  0  0  0  0  0  0  0  0  0  0
   -9.3950    6.3570    9.7450 N   0  0  0  0  0  0  0  0  0  0  0  0
  -10.5620    5.6840    9.7600 C   0  0  0  0  0  0  0  0  0  0  0  0
  -11.5770    5.6820   10.5960 N   0  0  0  0  0  0  0  0  0  0  0  0
  -12.4690    4.7490   10.1080 N   0  0  0  0  0  0  0  0  0  0  0  0
  -12.0160    4.1880    8.9920 N   0  0  0  0  0  0  0  0  0  0  0  0
  -10.8400    4.7900    8.7610 N   0  0  0  0  0  0  0  0  0  0  0  0
   -9.9950    4.4790    7.6090 C   0  0  0  0  0  0  0  0  0  0  0  0
   -8.6630    5.2070    7.7200 C   0  0  0  0  0  0  0  0  0  0  0  0
  -10.7490    4.8610    6.3730 C   0  0  0  0  0  0  0  0  0  0  0  0
  -11.0350    6.2020    6.1170 C   0  0  0  0  0  0  0  0  0  0  0  0
  -11.7370    6.5580    4.9650 C   0  0  0  0  0  0  0  0  0  0  0  0
  -12.1550    5.5730    4.0710 C   0  0  0  0  0  0  0  0  0  0  0  0
  -11.8700    4.2310    4.3270 C   0  0  0  0  0  0  0  0  0  0  0  0
  -11.1660    3.8760    5.4790 C   0  0  0  0  0  0  0  0  0  0  0  0
  -12.0160    7.8660    4.7150 O   0  0  0  0  0  0  0  0  0  0  0  0
   -6.8990    7.6510    9.7710 O   0  0  0  0  0  0  0  0  0  0  0  0
   -6.7913    3.1828    5.2916 N   0  0  0  0  0  0  0  0  0  0  0  0
   -7.2680    2.4415    4.3025 N   0  0  0  0  0  0  0  0  0  0  0  0
   -8.5401    2.8303    4.1010 C   0  0  0  0  0  0  0  0  0  0  0  0
   -9.6133    2.0979    2.8604 S   0  0  0  0  0  0  0  0  0  0  0  0
   -9.1991    3.3047    1.5527 C   0  0  0  0  0  0  0  0  0  0  0  0
   -8.0329    2.8175    0.7376 C   0  0  0  0  0  0  0  0  0  0  0  0
   -6.9288    2.6129    1.3085 O   0  0  0  0  0  0  0  0  0  0  0  0
   -8.1492    2.5483   -0.6683 N   0  0  0  0  0  0  0  0  0  0  0  0
   -9.1216    3.1679   -1.5254 C   0  0  0  0  0  0  0  0  0  0  0  0
   -9.3034    4.5609   -1.4647 C   0  0  0  0  0  0  0  0  0  0  0  0
  -10.1759    5.2034   -2.3434 C   0  0  0  0  0  0  0  0  0  0  0  0
  -10.3414    6.5473   -2.2730 F   0  0  0  0  0  0  0  0  0  0  0  0
  -10.8662    4.4658   -3.3037 C   0  0  0  0  0  0  0  0  0  0  0  0
  -10.6920    3.0829   -3.3838 C   0  0  0  0  0  0  0  0  0  0  0  0
   -9.8267    2.4133   -2.4970 C   0  0  0  0  0  0  0  0  0  0  0  0
   -9.7119    0.9359   -2.5825 C   0  0  0  0  0  0  0  0  0  0  0  0
  -10.0481    0.3333   -3.6368 O   0  0  0  0  0  0  0  0  0  0  0  0
   -9.2715    0.1881   -1.4970 O   0  0  0  0  0  0  0  0  0  0  0  0
   -8.8971    3.8188    4.9442 N   0  0  0  0  0  0  0  0  0  0  0  0
  -10.1823    4.5132    5.0091 C   0  0  0  0  0  0  0  0  0  0  0  0
  1  3  4  0
  1 14  4  0
  1  2  1  0
  3  4  4  0
  4  5  4  0
  5  6  4  0
  5 22  1  0
  6  7  1  0
  6 14  4  0
  7  8  1  0
  8  9  4  0
  8 12  4  0
  9 10  4  0
 10 11  4  0
 11 12  4  0
 12 13  1  0
 13 14  1  0
 13 15  1  6
 15 16  4  0
 15 20  4  0
 16 17  4  0
 17 18  4  0
 17 21  1  0
 18 19  4  0
 19 20  4  0
 23 24  4  0
 24 25  4  0
 25 26  1  0
 26 27  1  0
 27 28  1  0
 28 29  2  0
 28 30  1  0
 30 31  1  0
 31 32  4  0
 32 33  4  0
 33 34  1  0
 33 35  4  0
 35 36  4  0
 36 37  4  0
 37 38  1  0
 38 39  2  0
 38 40  1  0
 25 41  4  0
 41 42  1  0
 37 31  4  0
  2 23  4  0
  2 41  4  0
M  CHG  1  40  -1
M  END
$$$$

     RDKit          3D

 43 47  0  0  0  0  0  0  0  0999 V2000
   -7.6410    4.9930    6.8080 C   0  0  0  0  0  0  0  0  0  1  0  0
   -7.7310    4.0530    5.7140 C   0  0  0  0  0  0  0  0  0  2  0  0
   -6.4520    5.6300    6.8680 N   0  0  0  0  0  0  0  0  0  0  0  0
   -6.2260    6.5240    7.8670 N   0  0  0  0  0  0  0  0  0  0  0  0
   -7.1930    6.7500    8.7820 C   0  0  0  0  0  0  0  0  0  0  0  0
   -8.4240    6.1170    8.7580 C   0  0  0  0  0  0  0  0  0  0  0  0
   -9.3950    6.3570    9.7450 N   0  0  0  0  0  0  0  0  0  0  0  0
  -10.5620    5.6840    9.7600 C   0  0  0  0  0  0  0  0  0  0  0  0
  -11.5770    5.6820   10.5960 N   0  0  0  0  0  0  0  0  0  0  0  0
  -12.4690    4.7490   10.1080 N   0  0  0  0  0  0  0  0  0  0  0  0
  -12.0160    4.1880    8.9920 N   0  0  0  0  0  0  0  0  0  0  0  0
  -10.8400    4.7900    8.7610 N   0  0  0  0  0  0  0  0  0  0  0  0
   -9.9950    4.4790    7.6090 C   0  0  0  0  0  0  0  0  0  0  0  0
   -8.6630    5.2070    7.7200 C   0  0  0  0  0  0  0  0  0  0  0  0
  -10.7490    4.8610    6.3730 C   0  0  0  0  0  0  0  0  0  0  0  0
  -11.0350    6.2020    6.1170 C   0  0  0  0  0  0  0  0  0  0  0  0
  -11.7370    6.5580    4.9650 C   0  0  0  0  0  0  0  0  0  0  0  0
  -12.1550    5.5730    4.0710 C   0  0  0  0  0  0  0  0  0  0  0  0
  -11.8700    4.2310    4.3270 C   0  0  0  0  0  0  0  0  0  0  0  0
  -11.1660    3.8760    5.4790 C   0  0  0  0  0  0  0  0  0  0  0  0
  -12.0160    7.8660    4.7150 O   0  0  0  0  0  0  0  0  0  0  0  0
   -6.8990    7.6510    9.7710 O   0  0  0  0  0  0  0  0  0  0  0  0
   -6.8669    3.0572    5.4181 N   0  0  0  0  0  0  0  0  0  0  0  0
   -7.3029    2.3839    4.3643 N   0  0  0  0  0  0  0  0  0  0  0  0
   -8.4745    2.9384    4.0048 C   0  0  0  0  0  0  0  0  0  0  0  0
   -9.4257    2.3949    2.5842 S   0  0  0  0  0  0  0  0  0  0  0  0
  -10.4121    1.2049    3.5595 C   0  0  0  0  0  0  0  0  0  0  0  0
  -11.4663    0.5256    2.7330 C   0  0  0  0  0  0  0  0  0  0  0  0
  -11.6071    0.8171    1.5139 O   0  0  0  0  0  0  0  0  0  0  0  0
  -12.3258   -0.4464    3.3564 N   0  0  0  0  0  0  0  0  0  0  0  0
  -13.3569   -1.2341    2.6496 C   0  0  0  0  0  0  0  0  0  0  0  0
  -12.6906   -2.0943    1.5517 C   0  0  0  0  0  0  0  0  0  0  0  0
  -14.2973   -0.2887    2.0094 C   0  0  0  0  0  0  0  0  0  0  0  0
  -15.0319    0.4523    1.5088 N   0  0  0  0  0  0  0  0  0  0  0  0
  -14.1408   -2.1253    3.6852 C   0  0  0  0  0  0  0  0  0  0  0  0
  -15.4102   -2.7928    3.1135 C   0  0  0  0  0  0  0  0  0  0  0  0
  -13.2590   -3.2086    4.3384 C   0  0  0  0  0  0  0  0  0  0  0  0
   -8.8152    3.9606    4.8161 N   0  0  0  0  0  0  0  0  0  0  0  0
   -9.9127    4.9162    4.6192 C   0  0  0  0  0  0  0  0  0  0  0  0
   -9.5259    5.9984    3.6043 C   0  0  0  0  0  0  0  0  0  0  0  0
   -8.4655    6.9100    4.1404 C   0  0  0  0  0  0  0  0  0  0  0  0
   -8.7084    7.6549    5.1264 O   0  0  0  0  0  0  0  0  0  0  0  0
   -7.2109    6.9449    3.5452 O   0  0  0  0  0  0  0  0  0  0  0  0
  1  3  4  0
  1 14  4  0
  1  2  1  0
  3  4  4  0
  4  5  4  0
  5  6  4  0
  5 22  1  0
  6  7  1  0
  6 14  4  0
  7  8  1  0
  8  9  4  0
  8 12  4  0
  9 10  4  0
 10 11  4  0
 11 12  4  0
 12 13  1  0
 13 14  1  0
 13 15  1  6
 15 16  4  0
 15 20  4  0
 16 17  4  0
 17 18  4  0
 17 21  1  0
 18 19  4  0
 19 20  4  0
 23 24  4  0
 24 25  4  0
 25 26  1  0
 26 27  1  0
 27 28  1  0
 28 29  2  0
 28 30  1  0
 30 31  1  0
 31 32  1  0
 31 33  1  0
 33 34  3  0
 31 35  1  0
 35 36  1  0
 35 37  1  0
 25 38  4  0
 38 39  1  0
 39 40  1  0
 40 41  1  0
 41 42  2  0
 41 43  1  0
  2 23  4  0
  2 38  4  0
M  CHG  1  43  -1
M  END
$$$$

     RDKit          3D

 43 47  0  0  0  0  0  0  0  0999 V2000
   -7.6410    4.9930    6.8080 C   0  0  0  0  0  0  0  0  0  1  0  0
   -7.7310    4.0530    5.7140 C   0  0  0  0  0  0  0  0  0  2  0  0
   -6.4520    5.6300    6.8680 N   0  0  0  0  0  0  0  0  0  0  0  0
   -6.2260    6.5240    7.8670 N   0  0  0  0  0  0  0  0  0  0  0  0
   -7.1930    6.7500    8.7820 C   0  0  0  0  0  0  0  0  0  0  0  0
   -8.4240    6.1170    8.7580 C   0  0  0  0  0  0  0  0  0  0  0  0
   -9.3950    6.3570    9.7450 N   0  0  0  0  0  0  0  0  0  0  0  0
  -10.5620    5.6840    9.7600 C   0  0  0  0  0  0  0  0  0  0  0  0
  -11.5770    5.6820   10.5960 N   0  0  0  0  0  0  0  0  0  0  0  0
  -12.4690    4.7490   10.1080 N   0  0  0  0  0  0  0  0  0  0  0  0
  -12.0160    4.1880    8.9920 N   0  0  0  0  0  0  0  0  0  0  0  0
  -10.8400    4.7900    8.7610 N   0  0  0  0  0  0  0  0  0  0  0  0
   -9.9950    4.4790    7.6090 C   0  0  0  0  0  0  0  0  0  0  0  0
   -8.6630    5.2070    7.7200 C   0  0  0  0  0  0  0  0  0  0  0  0
  -10.7490    4.8610    6.3730 C   0  0  0  0  0  0  0  0  0  0  0  0
  -11.0350    6.2020    6.1170 C   0  0  0  0  0  0  0  0  0  0  0  0
  -11.7370    6.5580    4.9650 C   0  0  0  0  0  0  0  0  0  0  0  0
  -12.1550    5.5730    4.0710 C   0  0  0  0  0  0  0  0  0  0  0  0
  -11.8700    4.2310    4.3270 C   0  0  0  0  0  0  0  0  0  0  0  0
  -11.1660    3.8760    5.4790 C   0  0  0  0  0  0  0  0  0  0  0  0
  -12.0160    7.8660    4.7150 O   0  0  0  0  0  0  0  0  0  0  0  0
   -6.8990    7.6510    9.7710 O   0  0  0  0  0  0  0  0  0  0  0  0
   -6.8964    3.0195    5.4602 N   0  0  0  0  0  0  0  0  0  0  0  0
   -7.3303    2.3432    4.4078 N   0  0  0  0  0  0  0  0  0  0  0  0
   -8.4666    2.9382    4.0016 C   0  0  0  0  0  0  0  0  0  0  0  0
   -9.4125    2.3858    2.5785 S   0  0  0  0  0  0  0  0  0  0  0  0
   -8.3187    3.1594    1.3350 C   0  0  0  0  0  0  0  0  0  0  0  0
   -7.3397    2.1554    0.8078 C   0  0  0  0  0  0  0  0  0  0  0  0
   -6.3743    1.8052    1.5374 O   0  0  0  0  0  0  0  0  0  0  0  0
   -7.4101    1.6635   -0.5403 N   0  0  0  0  0  0  0  0  0  0  0  0
   -8.4942    0.8009   -1.0577 C   0  0  0  0  0  0  0  0  0  0  0  0
   -9.7874    1.6277   -1.2050 C   0  0  0  0  0  0  0  0  0  0  0  0
   -8.1157    0.3386   -2.4136 C   0  0  0  0  0  0  0  0  0  0  0  0
   -7.8196   -0.0223   -3.4726 N   0  0  0  0  0  0  0  0  0  0  0  0
   -8.7069   -0.4352   -0.1125 C   0  0  0  0  0  0  0  0  0  0  0  0
   -9.8691   -1.3478   -0.5514 C   0  0  0  0  0  0  0  0  0  0  0  0
   -7.4272   -1.2799    0.0429 C   0  0  0  0  0  0  0  0  0  0  0  0
   -8.7912    3.9858    4.7878 N   0  0  0  0  0  0  0  0  0  0  0  0
   -9.9047    4.9281    4.6098 C   0  0  0  0  0  0  0  0  0  0  0  0
   -9.5527    6.0345    3.6099 C   0  0  0  0  0  0  0  0  0  0  0  0
   -8.4343    6.8978    4.1058 C   0  0  0  0  0  0  0  0  0  0  0  0
   -7.3304    6.9150    3.5005 O   0  0  0  0  0  0  0  0  0  0  0  0
   -8.6145    7.6932    5.2305 O   0  0  0  0  0  0  0  0  0  0  0  0
  1  3  4  0
  1 14  4  0
  1  2  1  0
  3  4  4  0
  4  5  4  0
  5  6  4  0
  5 22  1  0
  6  7  1  0
  6 14  4  0
  7  8  1  0
  8  9  4  0
  8 12  4  0
  9 10  4  0
 10 11  4  0
 11 12  4  0
 12 13  1  0
 13 14  1  0
 13 15  1  6
 15 16  4  0
 15 20  4  0
 16 17  4  0
 17 18  4  0
 17 21  1  0
 18 19  4  0
 19 20  4  0
 23 24  4  0
 24 25  4  0
 25 26  1  0
 26 27  1  0
 27 28  1  0
 28 29  2  0
 28 30  1  0
 30 31  1  0
 31 32  1  0
 31 33  1  0
 33 34  3  0
 31 35  1  0
 35 36  1  0
 35 37  1  0
 25 38  4  0
 38 39  1  0
 39 40  1  0
 40 41  1  0
 41 42  2  0
 41 43  1  0
  2 23  4  0
  2 38  4  0
M  CHG  1  43  -1
M  END
$$$$

     RDKit          3D

 43 48  0  0  0  0  0  0  0  0999 V2000
   -7.6410    4.9930    6.8080 C   0  0  0  0  0  0  0  0  0  1  0  0
   -7.7310    4.0530    5.7140 C   0  0  0  0  0  0  0  0  0  2  0  0
   -6.4520    5.6300    6.8680 N   0  0  0  0  0  0  0  0  0  0  0  0
   -6.2260    6.5240    7.8670 N   0  0  0  0  0  0  0  0  0  0  0  0
   -7.1930    6.7500    8.7820 C   0  0  0  0  0  0  0  0  0  0  0  0
   -8.4240    6.1170    8.7580 C   0  0  0  0  0  0  0  0  0  0  0  0
   -9.3950    6.3570    9.7450 N   0  0  0  0  0  0  0  0  0  0  0  0
  -10.5620    5.6840    9.7600 C   0  0  0  0  0  0  0  0  0  0  0  0
  -11.5770    5.6820   10.5960 N   0  0  0  0  0  0  0  0  0  0  0  0
  -12.4690    4.7490   10.1080 N   0  0  0  0  0  0  0  0  0  0  0  0
  -12.0160    4.1880    8.9920 N   0  0  0  0  0  0  0  0  0  0  0  0
  -10.8400    4.7900    8.7610 N   0  0  0  0  0  0  0  0  0  0  0  0
   -9.9950    4.4790    7.6090 C   0  0  0  0  0  0  0  0  0  0  0  0
   -8.6630    5.2070    7.7200 C   0  0  0  0  0  0  0  0  0  0  0  0
  -10.7490    4.8610    6.3730 C   0  0  0  0  0  0  0  0  0  0  0  0
  -11.0350    6.2020    6.1170 C   0  0  0  0  0  0  0  0  0  0  0  0
  -11.7370    6.5580    4.9650 C   0  0  0  0  0  0  0  0  0  0  0  0
  -12.1550    5.5730    4.0710 C   0  0  0  0  0  0  0  0  0  0  0  0
  -11.8700    4.2310    4.3270 C   0  0  0  0  0  0  0  0  0  0  0  0
  -11.1660    3.8760    5.4790 C   0  0  0  0  0  0  0  0  0  0  0  0
  -12.0160    7.8660    4.7150 O   0  0  0  0  0  0  0  0  0  0  0  0
   -6.8990    7.6510    9.7710 O   0  0  0  0  0  0  0  0  0  0  0  0
   -6.8756    3.0462    5.4264 N   0  0  0  0  0  0  0  0  0  0  0  0
   -7.3080    2.3828    4.3645 N   0  0  0  0  0  0  0  0  0  0  0  0
   -8.4674    2.9561    3.9908 C   0  0  0  0  0  0  0  0  0  0  0  0
   -9.3954    2.4407    2.5418 S   0  0  0  0  0  0  0  0  0  0  0  0
  -10.5556    1.3789    3.4783 C   0  0  0  0  0  0  0  0  0  0  0  0
  -11.6834    0.9185    2.5563 C   0  0  0  0  0  0  0  0  0  0  0  0
   -9.8380    0.1902    4.0619 C   0  0  0  0  0  0  0  0  0  0  0  0
   -9.2189   -0.6025    3.2978 O   0  0  0  0  0  0  0  0  0  0  0  0
   -9.8598   -0.0407    5.4795 N   0  0  0  0  0  0  0  0  0  0  0  0
   -9.2293   -1.2072    6.0909 C   0  0  0  0  0  0  0  0  0  0  0  0
   -7.7395   -1.0718    6.0554 C   0  0  0  0  0  0  0  0  0  0  0  0
   -6.8712   -1.8135    5.2638 C   0  0  0  0  0  0  0  0  0  0  0  0
   -5.5280   -1.4589    5.4403 C   0  0  0  0  0  0  0  0  0  0  0  0
   -5.3351   -0.4437    6.3708 C   0  0  0  0  0  0  0  0  0  0  0  0
   -6.8383    0.0130    6.9750 S   0  0  0  0  0  0  0  0  0  0  0  0
   -8.8063    3.9770    4.8047 N   0  0  0  0  0  0  0  0  0  0  0  0
   -9.8651    4.9696    4.5933 C   0  0  0  0  0  0  0  0  0  0  0  0
   -9.3314    6.1459    3.7687 C   0  0  0  0  0  0  0  0  0  0  0  0
  -10.3723    7.2026    3.5304 C   0  0  0  0  0  0  0  0  0  0  0  0
  -10.0731    8.2286    2.8650 O   0  0  0  0  0  0  0  0  0  0  0  0
  -11.6647    7.0677    4.0263 O   0  0  0  0  0  0  0  0  0  0  0  0
  1  3  4  0
  1 14  4  0
  1  2  1  0
  3  4  4  0
  4  5  4  0
  5  6  4  0
  5 22  1  0
  6  7  1  0
  6 14  4  0
  7  8  1  0
  8  9  4  0
  8 12  4  0
  9 10  4  0
 10 11  4  0
 11 12  4  0
 12 13  1  0
 13 14  1  0
 13 15  1  6
 15 16  4  0
 15 20  4  0
 16 17  4  0
 17 18  4  0
 17 21  1  0
 18 19  4  0
 19 20  4  0
 23 24  4  0
 24 25  4  0
 25 26  1  0
 26 27  1  0
 27 28  1  0
 27 29  1  0
 29 30  2  0
 29 31  1  0
 31 32  1  0
 32 33  1  0
 33 34  4  0
 34 35  4  0
 35 36  4  0
 36 37  4  0
 25 38  4  0
 38 39  1  0
 39 40  1  0
 40 41  1  0
 41 42  2  0
 41 43  1  0
 37 33  4  0
  2 23  4  0
  2 38  4  0
M  CHG  1  43  -1
M  END
$$$$

     RDKit          3D

 43 48  0  0  0  0  0  0  0  0999 V2000
   -7.6410    4.9930    6.8080 C   0  0  0  0  0  0  0  0  0  1  0  0
   -7.7310    4.0530    5.7140 C   0  0  0  0  0  0  0  0  0  2  0  0
   -6.4520    5.6300    6.8680 N   0  0  0  0  0  0  0  0  0  0  0  0
   -6.2260    6.5240    7.8670 N   0  0  0  0  0  0  0  0  0  0  0  0
   -7.1930    6.7500    8.7820 C   0  0  0  0  0  0  0  0  0  0  0  0
   -8.4240    6.1170    8.7580 C   0  0  0  0  0  0  0  0  0  0  0  0
   -9.3950    6.3570    9.7450 N   0  0  0  0  0  0  0  0  0  0  0  0
  -10.5620    5.6840    9.7600 C   0  0  0  0  0  0  0  0  0  0  0  0
  -11.5770    5.6820   10.5960 N   0  0  0  0  0  0  0  0  0  0  0  0
  -12.4690    4.7490   10.1080 N   0  0  0  0  0  0  0  0  0  0  0  0
  -12.0160    4.1880    8.9920 N   0  0  0  0  0  0  0  0  0  0  0  0
  -10.8400    4.7900    8.7610 N   0  0  0  0  0  0  0  0  0  0  0  0
   -9.9950    4.4790    7.6090 C   0  0  0  0  0  0  0  0  0  0  0  0
   -8.6630    5.2070    7.7200 C   0  0  0  0  0  0  0  0  0  0  0  0
  -10.7490    4.8610    6.3730 C   0  0  0  0  0  0  0  0  0  0  0  0
  -11.0350    6.2020    6.1170 C   0  0  0  0  0  0  0  0  0  0  0  0
  -11.7370    6.5580    4.9650 C   0  0  0  0  0  0  0  0  0  0  0  0
  -12.1550    5.5730    4.0710 C   0  0  0  0  0  0  0  0  0  0  0  0
  -11.8700    4.2310    4.3270 C   0  0  0  0  0  0  0  0  0  0  0  0
  -11.1660    3.8760    5.4790 C   0  0  0  0  0  0  0  0  0  0  0  0
  -12.0160    7.8660    4.7150 O   0  0  0  0  0  0  0  0  0  0  0  0
   -6.8990    7.6510    9.7710 O   0  0  0  0  0  0  0  0  0  0  0  0
   -6.8756    3.0480    5.4351 N   0  0  0  0  0  0  0  0  0  0  0  0
   -7.2969    2.3918    4.3649 N   0  0  0  0  0  0  0  0  0  0  0  0
   -8.4494    2.9688    3.9799 C   0  0  0  0  0  0  0  0  0  0  0  0
   -9.3675    2.4469    2.5266 S   0  0  0  0  0  0  0  0  0  0  0  0
  -10.5616    1.4116    3.4514 C   0  0  0  0  0  0  0  0  0  0  0  0
   -9.9146    0.1051    3.9143 C   0  0  0  0  0  0  0  0  0  0  0  0
  -11.7482    1.1249    2.5769 C   0  0  0  0  0  0  0  0  0  0  0  0
  -12.8916    1.5088    2.9391 O   0  0  0  0  0  0  0  0  0  0  0  0
  -11.5822    0.4294    1.3306 N   0  0  0  0  0  0  0  0  0  0  0  0
  -12.7091    0.0372    0.4886 C   0  0  0  0  0  0  0  0  0  0  0  0
  -13.5603   -0.9760    1.1830 C   0  0  0  0  0  0  0  0  0  0  0  0
  -13.1097   -2.1113    1.8478 C   0  0  0  0  0  0  0  0  0  0  0  0
  -14.1468   -2.8955    2.3615 C   0  0  0  0  0  0  0  0  0  0  0  0
  -15.4126   -2.3878    2.0885 C   0  0  0  0  0  0  0  0  0  0  0  0
  -15.2419   -0.9626    1.2125 S   0  0  0  0  0  0  0  0  0  0  0  0
   -8.7887    3.9949    4.7885 N   0  0  0  0  0  0  0  0  0  0  0  0
   -9.8952    4.9486    4.6141 C   0  0  0  0  0  0  0  0  0  0  0  0
   -9.3890    6.3308    4.1915 C   0  0  0  0  0  0  0  0  0  0  0  0
   -8.6026    6.2754    2.9242 C   0  0  0  0  0  0  0  0  0  0  0  0
   -9.1482    5.9187    1.8535 O   0  0  0  0  0  0  0  0  0  0  0  0
   -7.2705    6.6389    2.9244 O   0  0  0  0  0  0  0  0  0  0  0  0
  1  3  4  0
  1 14  4  0
  1  2  1  0
  3  4  4  0
  4  5  4  0
  5  6  4  0
  5 22  1  0
  6  7  1  0
  6 14  4  0
  7  8  1  0
  8  9  4  0
  8 12  4  0
  9 10  4  0
 10 11  4  0
 11 12  4  0
 12 13  1  0
 13 14  1  0
 13 15  1  6
 15 16  4  0
 15 20  4  0
 16 17  4  0
 17 18  4  0
 17 21  1  0
 18 19  4  0
 19 20  4  0
 23 24  4  0
 24 25  4  0
 25 26  1  0
 26 27  1  0
 27 28  1  0
 27 29  1  0
 29 30  2  0
 29 31  1  0
 31 32  1  0
 32 33  1  0
 33 34  4  0
 34 35  4  0
 35 36  4  0
 36 37  4  0
 25 38  4  0
 38 39  1  0
 39 40  1  0
 40 41  1  0
 41 42  2  0
 41 43  1  0
 37 33  4  0
  2 23  4  0
  2 38  4  0
M  CHG  1  43  -1
M  END
$$$$

     RDKit          3D

 46 52  0  0  0  0  0  0  0  0999 V2000
   -7.6410    4.9930    6.8080 C   0  0  0  0  0  0  0  0  0  1  0  0
   -7.7310    4.0530    5.7140 C   0  0  0  0  0  0  0  0  0  2  0  0
   -6.4520    5.6300    6.8680 N   0  0  0  0  0  0  0  0  0  0  0  0
   -6.2260    6.5240    7.8670 N   0  0  0  0  0  0  0  0  0  0  0  0
   -7.1930    6.7500    8.7820 C   0  0  0  0  0  0  0  0  0  0  0  0
   -8.4240    6.1170    8.7580 C   0  0  0  0  0  0  0  0  0  0  0  0
   -9.3950    6.3570    9.7450 N   0  0  0  0  0  0  0  0  0  0  0  0
  -10.5620    5.6840    9.7600 C   0  0  0  0  0  0  0  0  0  0  0  0
  -11.5770    5.6820   10.5960 N   0  0  0  0  0  0  0  0  0  0  0  0
  -12.4690    4.7490   10.1080 N   0  0  0  0  0  0  0  0  0  0  0  0
  -12.0160    4.1880    8.9920 N   0  0  0  0  0  0  0  0  0  0  0  0
  -10.8400    4.7900    8.7610 N   0  0  0  0  0  0  0  0  0  0  0  0
   -9.9950    4.4790    7.6090 C   0  0  0  0  0  0  0  0  0  0  0  0
   -8.6630    5.2070    7.7200 C   0  0  0  0  0  0  0  0  0  0  0  0
  -10.7490    4.8610    6.3730 C   0  0  0  0  0  0  0  0  0  0  0  0
  -11.0350    6.2020    6.1170 C   0  0  0  0  0  0  0  0  0  0  0  0
  -11.7370    6.5580    4.9650 C   0  0  0  0  0  0  0  0  0  0  0  0
  -12.1550    5.5730    4.0710 C   0  0  0  0  0  0  0  0  0  0  0  0
  -11.8700    4.2310    4.3270 C   0  0  0  0  0  0  0  0  0  0  0  0
  -11.1660    3.8760    5.4790 C   0  0  0  0  0  0  0  0  0  0  0  0
  -12.0160    7.8660    4.7150 O   0  0  0  0  0  0  0  0  0  0  0  0
   -6.8990    7.6510    9.7710 O   0  0  0  0  0  0  0  0  0  0  0  0
   -6.8540    3.0639    5.4138 N   0  0  0  0  0  0  0  0  0  0  0  0
   -7.3351    2.3114    4.4345 N   0  0  0  0  0  0  0  0  0  0  0  0
   -8.5482    2.8120    4.1213 C   0  0  0  0  0  0  0  0  0  0  0  0
   -9.6285    2.0676    2.8928 S   0  0  0  0  0  0  0  0  0  0  0  0
  -10.5451    1.0657    4.1120 C   0  0  0  0  0  0  0  0  0  0  0  0
   -9.8059   -0.1991    4.4248 C   0  0  0  0  0  0  0  0  0  0  0  0
   -9.1002   -0.2293    5.4685 O   0  0  0  0  0  0  0  0  0  0  0  0
   -9.9189   -1.3755    3.5936 N   0  0  0  0  0  0  0  0  0  0  0  0
  -10.3286   -1.2656    2.1935 C   0  0  0  0  0  0  0  0  0  0  0  0
   -9.6179   -2.7033    4.1442 C   0  0  0  0  0  0  0  0  0  0  0  0
   -8.3600   -3.2602    3.5360 C   0  0  0  0  0  0  0  0  0  0  0  0
   -8.4172   -4.3526    2.6523 C   0  0  0  0  0  0  0  0  0  0  0  0
   -7.2397   -4.8777    2.1011 C   0  0  0  0  0  0  0  0  0  0  0  0
   -6.0038   -4.3235    2.4395 C   0  0  0  0  0  0  0  0  0  0  0  0
   -5.9365   -3.2337    3.3122 C   0  0  0  0  0  0  0  0  0  0  0  0
   -4.7337   -2.7028    3.6447 F   0  0  0  0  0  0  0  0  0  0  0  0
   -7.1080   -2.6979    3.8530 C   0  0  0  0  0  0  0  0  0  0  0  0
   -8.8621    3.8869    4.8769 N   0  0  0  0  0  0  0  0  0  0  0  0
  -10.0397    4.7648    4.7375 C   0  0  0  0  0  0  0  0  0  0  0  0
   -9.8732    5.7984    3.6031 C   0  0  0  0  0  0  0  0  0  0  0  0
   -8.8707    6.8958    3.9278 C   0  0  0  0  0  0  0  0  0  0  0  0
   -8.4080    7.3263    2.5695 C   0  0  0  0  0  0  0  0  0  0  0  0
   -8.6462    6.0888    1.7168 C   0  0  0  0  0  0  0  0  0  0  0  0
   -9.4791    5.1804    2.4007 O   0  0  0  0  0  0  0  0  0  0  0  0
  1  3  4  0
  1 14  4  0
  1  2  1  0
  3  4  4  0
  4  5  4  0
  5  6  4  0
  5 22  1  0
  6  7  1  0
  6 14  4  0
  7  8  1  0
  8  9  4  0
  8 12  4  0
  9 10  4  0
 10 11  4  0
 11 12  4  0
 12 13  1  0
 13 14  1  0
 13 15  1  6
 15 16  4  0
 15 20  4  0
 16 17  4  0
 17 18  4  0
 17 21  1  0
 18 19  4  0
 19 20  4  0
 23 24  4  0
 24 25  4  0
 25 26  1  0
 26 27  1  0
 27 28  1  0
 28 29  2  0
 28 30  1  0
 30 31  1  0
 30 32  1  0
 32 33  1  0
 33 34  4  0
 34 35  4  0
 35 36  4  0
 36 37  4  0
 37 38  1  0
 37 39  4  0
 25 40  4  0
 40 41  1  0
 41 42  1  0
 42 43  1  0
 43 44  1  0
 44 45  1  0
 45 46  1  0
 46 42  1  0
 39 33  4  0
  2 23  4  0
  2 40  4  0
M  END
$$$$

     RDKit          3D

 46 52  0  0  0  0  0  0  0  0999 V2000
   -7.6410    4.9930    6.8080 C   0  0  0  0  0  0  0  0  0  1  0  0
   -7.7310    4.0530    5.7140 C   0  0  0  0  0  0  0  0  0  2  0  0
   -6.4520    5.6300    6.8680 N   0  0  0  0  0  0  0  0  0  0  0  0
   -6.2260    6.5240    7.8670 N   0  0  0  0  0  0  0  0  0  0  0  0
   -7.1930    6.7500    8.7820 C   0  0  0  0  0  0  0  0  0  0  0  0
   -8.4240    6.1170    8.7580 C   0  0  0  0  0  0  0  0  0  0  0  0
   -9.3950    6.3570    9.7450 N   0  0  0  0  0  0  0  0  0  0  0  0
  -10.5620    5.6840    9.7600 C   0  0  0  0  0  0  0  0  0  0  0  0
  -11.5770    5.6820   10.5960 N   0  0  0  0  0  0  0  0  0  0  0  0
  -12.4690    4.7490   10.1080 N   0  0  0  0  0  0  0  0  0  0  0  0
  -12.0160    4.1880    8.9920 N   0  0  0  0  0  0  0  0  0  0  0  0
  -10.8400    4.7900    8.7610 N   0  0  0  0  0  0  0  0  0  0  0  0
   -9.9950    4.4790    7.6090 C   0  0  0  0  0  0  0  0  0  0  0  0
   -8.6630    5.2070    7.7200 C   0  0  0  0  0  0  0  0  0  0  0  0
  -10.7490    4.8610    6.3730 C   0  0  0  0  0  0  0  0  0  0  0  0
  -11.0350    6.2020    6.1170 C   0  0  0  0  0  0  0  0  0  0  0  0
  -11.7370    6.5580    4.9650 C   0  0  0  0  0  0  0  0  0  0  0  0
  -12.1550    5.5730    4.0710 C   0  0  0  0  0  0  0  0  0  0  0  0
  -11.8700    4.2310    4.3270 C   0  0  0  0  0  0  0  0  0  0  0  0
  -11.1660    3.8760    5.4790 C   0  0  0  0  0  0  0  0  0  0  0  0
  -12.0160    7.8660    4.7150 O   0  0  0  0  0  0  0  0  0  0  0  0
   -6.8990    7.6510    9.7710 O   0  0  0  0  0  0  0  0  0  0  0  0
   -6.8812    3.0362    5.4446 N   0  0  0  0  0  0  0  0  0  0  0  0
   -7.3540    2.3055    4.4455 N   0  0  0  0  0  0  0  0  0  0  0  0
   -8.5298    2.8502    4.0854 C   0  0  0  0  0  0  0  0  0  0  0  0
   -9.6142    2.1049    2.8626 S   0  0  0  0  0  0  0  0  0  0  0  0
   -8.8200    2.9148    1.4300 C   0  0  0  0  0  0  0  0  0  0  0  0
   -9.6832    2.8470    0.1949 C   0  0  0  0  0  0  0  0  0  0  0  0
  -10.7830    2.2319    0.2426 O   0  0  0  0  0  0  0  0  0  0  0  0
   -9.3007    3.5087   -1.0316 N   0  0  0  0  0  0  0  0  0  0  0  0
  -10.3275    3.7432   -2.0540 C   0  0  0  0  0  0  0  0  0  0  0  0
   -7.9049    3.8536   -1.3421 C   0  0  0  0  0  0  0  0  0  0  0  0
   -7.3169    2.8220   -2.2669 C   0  0  0  0  0  0  0  0  0  0  0  0
   -7.1176    3.1110   -3.6272 C   0  0  0  0  0  0  0  0  0  0  0  0
   -6.6147    2.1306   -4.4897 C   0  0  0  0  0  0  0  0  0  0  0  0
   -6.3092    0.8566   -4.0013 C   0  0  0  0  0  0  0  0  0  0  0  0
   -6.4994    0.5628   -2.6495 C   0  0  0  0  0  0  0  0  0  0  0  0
   -6.1996   -0.6713   -2.1779 F   0  0  0  0  0  0  0  0  0  0  0  0
   -7.0033    1.5400   -1.7846 C   0  0  0  0  0  0  0  0  0  0  0  0
   -8.8285    3.9368    4.8300 N   0  0  0  0  0  0  0  0  0  0  0  0
  -10.0216    4.7934    4.7230 C   0  0  0  0  0  0  0  0  0  0  0  0
   -9.6784    6.2891    4.5404 C   0  0  0  0  0  0  0  0  0  0  0  0
   -8.7733    6.5622    3.3468 C   0  0  0  0  0  0  0  0  0  0  0  0
   -9.7422    6.8887    2.2552 C   0  0  0  0  0  0  0  0  0  0  0  0
  -10.9474    7.4148    3.0111 C   0  0  0  0  0  0  0  0  0  0  0  0
  -10.8775    7.0112    4.3618 O   0  0  0  0  0  0  0  0  0  0  0  0
  1  3  4  0
  1 14  4  0
  1  2  1  0
  3  4  4  0
  4  5  4  0
  5  6  4  0
  5 22  1  0
  6  7  1  0
  6 14  4  0
  7  8  1  0
  8  9  4  0
  8 12  4  0
  9 10  4  0
 10 11  4  0
 11 12  4  0
 12 13  1  0
 13 14  1  0
 13 15  1  6
 15 16  4  0
 15 20  4  0
 16 17  4  0
 17 18  4  0
 17 21  1  0
 18 19  4  0
 19 20  4  0
 23 24  4  0
 24 25  4  0
 25 26  1  0
 26 27  1  0
 27 28  1  0
 28 29  2  0
 28 30  1  0
 30 31  1  0
 30 32  1  0
 32 33  1  0
 33 34  4  0
 34 35  4  0
 35 36  4  0
 36 37  4  0
 37 38  1  0
 37 39  4  0
 25 40  4  0
 40 41  1  0
 41 42  1  0
 42 43  1  0
 43 44  1  0
 44 45  1  0
 45 46  1  0
 46 42  1  0
 39 33  4  0
  2 23  4  0
  2 40  4  0
M  END
$$$$

     RDKit          3D

 43 50  0  0  0  0  0  0  0  0999 V2000
   -7.6410    4.9930    6.8080 C   0  0  0  0  0  0  0  0  0  1  0  0
   -7.7310    4.0530    5.7140 C   0  0  0  0  0  0  0  0  0  2  0  0
   -6.4520    5.6300    6.8680 N   0  0  0  0  0  0  0  0  0  0  0  0
   -6.2260    6.5240    7.8670 N   0  0  0  0  0  0  0  0  0  0  0  0
   -7.1930    6.7500    8.7820 C   0  0  0  0  0  0  0  0  0  0  0  0
   -8.4240    6.1170    8.7580 C   0  0  0  0  0  0  0  0  0  0  0  0
   -9.3950    6.3570    9.7450 N   0  0  0  0  0  0  0  0  0  0  0  0
  -10.5620    5.6840    9.7600 C   0  0  0  0  0  0  0  0  0  0  0  0
  -11.5770    5.6820   10.5960 N   0  0  0  0  0  0  0  0  0  0  0  0
  -12.4690    4.7490   10.1080 N   0  0  0  0  0  0  0  0  0  0  0  0
  -12.0160    4.1880    8.9920 N   0  0  0  0  0  0  0  0  0  0  0  0
  -10.8400    4.7900    8.7610 N   0  0  0  0  0  0  0  0  0  0  0  0
   -9.9950    4.4790    7.6090 C   0  0  0  0  0  0  0  0  0  0  0  0
   -8.6630    5.2070    7.7200 C   0  0  0  0  0  0  0  0  0  0  0  0
  -10.7490    4.8610    6.3730 C   0  0  0  0  0  0  0  0  0  0  0  0
  -11.0350    6.2020    6.1170 C   0  0  0  0  0  0  0  0  0  0  0  0
  -11.7370    6.5580    4.9650 C   0  0  0  0  0  0  0  0  0  0  0  0
  -12.1550    5.5730    4.0710 C   0  0  0  0  0  0  0  0  0  0  0  0
  -11.8700    4.2310    4.3270 C   0  0  0  0  0  0  0  0  0  0  0  0
  -11.1660    3.8760    5.4790 C   0  0  0  0  0  0  0  0  0  0  0  0
  -12.0160    7.8660    4.7150 O   0  0  0  0  0  0  0  0  0  0  0  0
   -6.8990    7.6510    9.7710 O   0  0  0  0  0  0  0  0  0  0  0  0
   -6.9975    2.8532    5.6328 C   0  0  0  0  0  0  0  0  0  0  0  0
   -7.5135    1.8800    4.3540 S   0  0  0  0  0  0  0  0  0  0  0  0
   -8.7237    2.9265    3.8640 C   0  0  0  0  0  0  0  0  0  0  0  0
   -9.5665    2.7412    2.8224 N   0  0  0  0  0  0  0  0  0  0  0  0
  -10.4892    3.7014    2.5323 C   0  0  0  0  0  0  0  0  0  1  0  0
  -11.4256    3.5213    1.3967 C   0  0  0  0  0  0  0  0  0  2  0  0
  -11.3860    2.3602    0.6043 C   0  0  0  0  0  0  0  0  0  0  0  0
  -12.2729    2.2068   -0.4625 C   0  0  0  0  0  0  0  0  0  0  0  0
  -13.1974    3.2150   -0.7343 C   0  0  0  0  0  0  0  0  0  0  0  0
  -13.2296    4.3334    0.0362 N   0  0  0  0  0  0  0  0  0  0  0  0
  -12.3775    4.5087    1.0814 C   0  0  0  0  0  0  0  0  0  0  0  0
  -10.5304    4.8431    3.2820 N   0  0  0  0  0  0  0  0  0  0  0  0
   -9.6887    5.0593    4.3317 C   0  0  0  0  0  0  0  0  0  0  0  0
   -9.7717    6.6513    5.1538 S   0  0  0  0  0  0  0  0  0  0  0  0
   -8.5863    7.3896    4.0288 C   0  0  0  0  0  0  0  0  0  0  0  0
   -7.2579    7.3855    4.2628 N   0  0  0  0  0  0  0  0  0  0  0  0
   -6.7318    7.9998    3.1835 C   0  0  0  0  0  0  0  0  0  0  0  0
   -7.7408    8.3619    2.3185 C   0  0  0  0  0  0  0  0  0  0  0  0
   -8.9095    7.9895    2.8644 N   0  0  0  0  0  0  0  0  0  0  0  0
  -10.2258    8.0971    2.2441 C   0  0  0  0  0  0  0  0  0  0  0  0
   -8.7587    4.0549    4.6645 C   0  0  0  0  0  0  0  0  0  0  0  0
  1  3  4  0
  1 14  4  0
  1  2  1  0
  3  4  4  0
  4  5  4  0
  5  6  4  0
  5 22  1  0
  6  7  1  0
  6 14  4  0
  7  8  1  0
  8  9  4  0
  8 12  4  0
  9 10  4  0
 10 11  4  0
 11 12  4  0
 12 13  1  0
 13 14  1  0
 13 15  1  6
 15 16  4  0
 15 20  4  0
 16 17  4  0
 17 18  4  0
 17 21  1  0
 18 19  4  0
 19 20  4  0
 23 24  4  0
 24 25  4  0
 25 26  4  0
 26 27  4  0
 27 28  1  0
 28 29  4  0
 29 30  4  0
 30 31  4  0
 31 32  4  0
 32 33  4  0
 27 34  4  0
 34 35  4  0
 35 36  1  0
 36 37  1  0
 37 38  4  0
 38 39  4  0
 39 40  4  0
 40 41  4  0
 41 42  1  0
 35 43  4  0
 43 25  4  0
 33 28  4  0
 41 37  4  0
  2 23  4  0
  2 43  4  0
M  END
$$$$

     RDKit          3D

 43 50  0  0  0  0  0  0  0  0999 V2000
   -7.6410    4.9930    6.8080 C   0  0  0  0  0  0  0  0  0  1  0  0
   -7.7310    4.0530    5.7140 C   0  0  0  0  0  0  0  0  0  2  0  0
   -6.4520    5.6300    6.8680 N   0  0  0  0  0  0  0  0  0  0  0  0
   -6.2260    6.5240    7.8670 N   0  0  0  0  0  0  0  0  0  0  0  0
   -7.1930    6.7500    8.7820 C   0  0  0  0  0  0  0  0  0  0  0  0
   -8.4240    6.1170    8.7580 C   0  0  0  0  0  0  0  0  0  0  0  0
   -9.3950    6.3570    9.7450 N   0  0  0  0  0  0  0  0  0  0  0  0
  -10.5620    5.6840    9.7600 C   0  0  0  0  0  0  0  0  0  0  0  0
  -11.5770    5.6820   10.5960 N   0  0  0  0  0  0  0  0  0  0  0  0
  -12.4690    4.7490   10.1080 N   0  0  0  0  0  0  0  0  0  0  0  0
  -12.0160    4.1880    8.9920 N   0  0  0  0  0  0  0  0  0  0  0  0
  -10.8400    4.7900    8.7610 N   0  0  0  0  0  0  0  0  0  0  0  0
   -9.9950    4.4790    7.6090 C   0  0  0  0  0  0  0  0  0  0  0  0
   -8.6630    5.2070    7.7200 C   0  0  0  0  0  0  0  0  0  0  0  0
  -10.7490    4.8610    6.3730 C   0  0  0  0  0  0  0  0  0  0  0  0
  -11.0350    6.2020    6.1170 C   0  0  0  0  0  0  0  0  0  0  0  0
  -11.7370    6.5580    4.9650 C   0  0  0  0  0  0  0  0  0  0  0  0
  -12.1550    5.5730    4.0710 C   0  0  0  0  0  0  0  0  0  0  0  0
  -11.8700    4.2310    4.3270 C   0  0  0  0  0  0  0  0  0  0  0  0
  -11.1660    3.8760    5.4790 C   0  0  0  0  0  0  0  0  0  0  0  0
  -12.0160    7.8660    4.7150 O   0  0  0  0  0  0  0  0  0  0  0  0
   -6.8990    7.6510    9.7710 O   0  0  0  0  0  0  0  0  0  0  0  0
   -6.8950    2.9361    5.5458 C   0  0  0  0  0  0  0  0  0  0  0  0
   -7.4812    1.8586    4.3873 S   0  0  0  0  0  0  0  0  0  0  0  0
   -8.8521    2.7545    4.0480 C   0  0  0  0  0  0  0  0  0  0  0  0
   -9.8318    2.4155    3.1791 N   0  0  0  0  0  0  0  0  0  0  0  0
  -10.8965    3.2502    3.0159 C   0  0  0  0  0  0  0  0  0  1  0  0
  -11.9868    2.8971    2.0750 C   0  0  0  0  0  0  0  0  0  2  0  0
  -11.9610    1.6860    1.3606 C   0  0  0  0  0  0  0  0  0  0  0  0
  -12.9941    1.3690    0.4775 C   0  0  0  0  0  0  0  0  0  0  0  0
  -14.0514    2.2634    0.3116 C   0  0  0  0  0  0  0  0  0  0  0  0
  -14.0688    3.4315    1.0051 N   0  0  0  0  0  0  0  0  0  0  0  0
  -13.0749    3.7658    1.8712 C   0  0  0  0  0  0  0  0  0  0  0  0
  -10.9370    4.4306    3.7032 N   0  0  0  0  0  0  0  0  0  0  0  0
   -9.9560    4.8043    4.5735 C   0  0  0  0  0  0  0  0  0  0  0  0
  -10.0317    6.4631    5.2571 S   0  0  0  0  0  0  0  0  0  0  0  0
   -9.6340    7.2314    3.6838 C   0  0  0  0  0  0  0  0  0  0  0  0
  -10.5764    7.5454    2.7705 N   0  0  0  0  0  0  0  0  0  0  0  0
   -9.8770    8.0653    1.7407 C   0  0  0  0  0  0  0  0  0  0  0  0
   -8.5333    8.0585    2.0428 C   0  0  0  0  0  0  0  0  0  0  0  0
   -8.3878    7.5427    3.2738 N   0  0  0  0  0  0  0  0  0  0  0  0
   -7.1318    7.3076    3.9742 C   0  0  0  0  0  0  0  0  0  0  0  0
   -8.8869    3.9153    4.8009 C   0  0  0  0  0  0  0  0  0  0  0  0
  1  3  4  0
  1 14  4  0
  1  2  1  0
  3  4  4  0
  4  5  4  0
  5  6  4  0
  5 22  1  0
  6  7  1  0
  6 14  4  0
  7  8  1  0
  8  9  4  0
  8 12  4  0
  9 10  4  0
 10 11  4  0
 11 12  4  0
 12 13  1  0
 13 14  1  0
 13 15  1  6
 15 16  4  0
 15 20  4  0
 16 17  4  0
 17 18  4  0
 17 21  1  0
 18 19  4  0
 19 20  4  0
 23 24  4  0
 24 25  4  0
 25 26  4  0
 26 27  4  0
 27 28  1  0
 28 29  4  0
 29 30  4  0
 30 31  4  0
 31 32  4  0
 32 33  4  0
 27 34  4  0
 34 35  4  0
 35 36  1  0
 36 37  1  0
 37 38  4  0
 38 39  4  0
 39 40  4  0
 40 41  4  0
 41 42  1  0
 35 43  4  0
 43 25  4  0
 33 28  4  0
 41 37  4  0
  2 23  4  0
  2 43  4  0
M  END
$$$$

     RDKit          3D

 29 33  0  0  0  0  0  0  0  0999 V2000
   -7.6410    4.9930    6.8080 C   0  0  0  0  0  0  0  0  0  1  0  0
   -7.7310    4.0530    5.7140 C   0  0  0  0  0  0  0  0  0  2  0  0
   -6.4520    5.6300    6.8680 N   0  0  0  0  0  0  0  0  0  0  0  0
   -6.2260    6.5240    7.8670 N   0  0  0  0  0  0  0  0  0  0  0  0
   -7.1930    6.7500    8.7820 C   0  0  0  0  0  0  0  0  0  0  0  0
   -8.4240    6.1170    8.7580 C   0  0  0  0  0  0  0  0  0  0  0  0
   -9.3950    6.3570    9.7450 N   0  0  0  0  0  0  0  0  0  0  0  0
  -10.5620    5.6840    9.7600 C   0  0  0  0  0  0  0  0  0  0  0  0
  -11.5770    5.6820   10.5960 N   0  0  0  0  0  0  0  0  0  0  0  0
  -12.4690    4.7490   10.1080 N   0  0  0  0  0  0  0  0  0  0  0  0
  -12.0160    4.1880    8.9920 N   0  0  0  0  0  0  0  0  0  0  0  0
  -10.8400    4.7900    8.7610 N   0  0  0  0  0  0  0  0  0  0  0  0
   -9.9950    4.4790    7.6090 C   0  0  0  0  0  0  0  0  0  0  0  0
   -8.6630    5.2070    7.7200 C   0  0  0  0  0  0  0  0  0  0  0  0
  -10.7490    4.8610    6.3730 C   0  0  0  0  0  0  0  0  0  0  0  0
  -11.0350    6.2020    6.1170 C   0  0  0  0  0  0  0  0  0  0  0  0
  -11.7370    6.5580    4.9650 C   0  0  0  0  0  0  0  0  0  0  0  0
  -12.1550    5.5730    4.0710 C   0  0  0  0  0  0  0  0  0  0  0  0
  -11.8700    4.2310    4.3270 C   0  0  0  0  0  0  0  0  0  0  0  0
  -11.1660    3.8760    5.4790 C   0  0  0  0  0  0  0  0  0  0  0  0
  -12.0160    7.8660    4.7150 O   0  0  0  0  0  0  0  0  0  0  0  0
   -6.8990    7.6510    9.7710 O   0  0  0  0  0  0  0  0  0  0  0  0
   -6.9105    2.9198    5.5918 C   0  0  0  0  0  0  0  0  0  0  0  0
   -7.0915    1.9492    4.6035 C   0  0  0  0  0  0  0  0  0  0  0  0
   -8.1511    2.0588    3.7009 C   0  0  0  0  0  0  0  0  0  0  0  0
   -8.3245    1.1165    2.7417 F   0  0  0  0  0  0  0  0  0  0  0  0
   -9.0248    3.1464    3.7779 C   0  0  0  0  0  0  0  0  0  0  0  0
   -8.8524    4.1254    4.7642 C   0  0  0  0  0  0  0  0  0  0  0  0
  -10.0270    5.6424    4.7405 Br  0  0  0  0  0  0  0  0  0  0  0  0
  1  3  4  0
  1 14  4  0
  1  2  1  0
  3  4  4  0
  4  5  4  0
  5  6  4  0
  5 22  1  0
  6  7  1  0
  6 14  4  0
  7  8  1  0
  8  9  4  0
  8 12  4  0
  9 10  4  0
 10 11  4  0
 11 12  4  0
 12 13  1  0
 13 14  1  0
 13 15  1  6
 15 16  4  0
 15 20  4  0
 16 17  4  0
 17 18  4  0
 17 21  1  0
 18 19  4  0
 19 20  4  0
 23 24  4  0
 24 25  4  0
 25 26  1  0
 25 27  4  0
 27 28  4  0
 28 29  1  0
  2 23  4  0
  2 28  4  0
M  END
$$$$

     RDKit          3D

 45 51  0  0  0  0  0  0  0  0999 V2000
   -7.6410    4.9930    6.8080 C   0  0  0  0  0  0  0  0  0  1  0  0
   -7.7310    4.0530    5.7140 C   0  0  0  0  0  0  0  0  0  2  0  0
   -6.4520    5.6300    6.8680 N   0  0  0  0  0  0  0  0  0  0  0  0
   -6.2260    6.5240    7.8670 N   0  0  0  0  0  0  0  0  0  0  0  0
   -7.1930    6.7500    8.7820 C   0  0  0  0  0  0  0  0  0  0  0  0
   -8.4240    6.1170    8.7580 C   0  0  0  0  0  0  0  0  0  0  0  0
   -9.3950    6.3570    9.7450 N   0  0  0  0  0  0  0  0  0  0  0  0
  -10.5620    5.6840    9.7600 C   0  0  0  0  0  0  0  0  0  0  0  0
  -11.5770    5.6820   10.5960 N   0  0  0  0  0  0  0  0  0  0  0  0
  -12.4690    4.7490   10.1080 N   0  0  0  0  0  0  0  0  0  0  0  0
  -12.0160    4.1880    8.9920 N   0  0  0  0  0  0  0  0  0  0  0  0
  -10.8400    4.7900    8.7610 N   0  0  0  0  0  0  0  0  0  0  0  0
   -9.9950    4.4790    7.6090 C   0  0  0  0  0  0  0  0  0  0  0  0
   -8.6630    5.2070    7.7200 C   0  0  0  0  0  0  0  0  0  0  0  0
  -10.7490    4.8610    6.3730 C   0  0  0  0  0  0  0  0  0  0  0  0
  -11.0350    6.2020    6.1170 C   0  0  0  0  0  0  0  0  0  0  0  0
  -11.7370    6.5580    4.9650 C   0  0  0  0  0  0  0  0  0  0  0  0
  -12.1550    5.5730    4.0710 C   0  0  0  0  0  0  0  0  0  0  0  0
  -11.8700    4.2310    4.3270 C   0  0  0  0  0  0  0  0  0  0  0  0
  -11.1660    3.8760    5.4790 C   0  0  0  0  0  0  0  0  0  0  0  0
  -12.0160    7.8660    4.7150 O   0  0  0  0  0  0  0  0  0  0  0  0
   -6.8990    7.6510    9.7710 O   0  0  0  0  0  0  0  0  0  0  0  0
   -6.8644    3.0593    5.4184 N   0  0  0  0  0  0  0  0  0  0  0  0
   -7.3307    2.3408    4.4090 N   0  0  0  0  0  0  0  0  0  0  0  0
   -8.5221    2.8667    4.0710 C   0  0  0  0  0  0  0  0  0  0  0  0
   -9.5690    2.1776    2.7744 S   0  0  0  0  0  0  0  0  0  0  0  0
   -8.8363    3.9291    4.8417 N   0  0  0  0  0  0  0  0  0  0  0  0
  -10.0202    4.7922    4.7440 C   0  0  0  0  0  0  0  0  0  0  0  0
  -10.1047    5.4581    3.3934 C   0  0  0  0  0  0  0  0  0  0  0  0
  -11.0471    5.1218    2.6260 O   0  0  0  0  0  0  0  0  0  0  0  0
   -9.1620    6.4733    2.9718 N   0  0  0  0  0  0  0  0  0  0  0  0
   -8.1383    6.9840    3.8894 C   0  0  0  0  0  0  0  0  0  0  0  0
   -9.1508    6.9477    1.5804 C   0  0  0  0  0  0  0  0  0  0  0  0
   -8.0632    6.2493    0.8092 C   0  0  0  0  0  0  0  0  0  0  0  0
   -8.2140    4.9053    0.4407 C   0  0  0  0  0  0  0  0  0  0  0  0
   -7.1943    4.2404   -0.2452 C   0  0  0  0  0  0  0  0  0  0  0  0
   -6.0021    4.9093   -0.5783 C   0  0  0  0  0  0  0  0  0  0  0  0
   -4.9430    4.2224   -1.2825 N   0  0  0  0  0  0  0  0  0  0  0  0
   -5.2615    3.1816   -2.2731 C   0  0  0  0  0  0  0  0  0  0  0  0
   -4.2038    3.1576   -3.3813 C   0  0  0  0  0  0  0  0  0  0  0  0
   -2.7754    2.9682   -2.8339 C   0  0  0  0  0  0  0  0  0  0  0  0
   -2.6215    3.3609   -1.3546 C   0  0  0  0  0  0  0  0  0  0  0  0
   -3.5363    4.5286   -0.9728 C   0  0  0  0  0  0  0  0  0  0  0  0
   -5.8565    6.2583   -0.2059 C   0  0  0  0  0  0  0  0  0  0  0  0
   -6.8768    6.9213    0.4822 C   0  0  0  0  0  0  0  0  0  0  0  0
  1  3  4  0
  1 14  4  0
  1  2  1  0
  3  4  4  0
  4  5  4  0
  5  6  4  0
  5 22  1  0
  6  7  1  0
  6 14  4  0
  7  8  1  0
  8  9  4  0
  8 12  4  0
  9 10  4  0
 10 11  4  0
 11 12  4  0
 12 13  1  0
 13 14  1  0
 13 15  1  6
 15 16  4  0
 15 20  4  0
 16 17  4  0
 17 18  4  0
 17 21  1  0
 18 19  4  0
 19 20  4  0
 23 24  4  0
 24 25  4  0
 25 26  1  0
 25 27  4  0
 27 28  1  0
 28 29  1  0
 29 30  2  0
 29 31  1  0
 31 32  1  0
 31 33  1  0
 33 34  1  0
 34 35  4  0
 35 36  4  0
 36 37  4  0
 37 38  1  0
 38 39  1  0
 39 40  1  0
 40 41  1  0
 41 42  1  0
 42 43  1  0
 37 44  4  0
 44 45  4  0
 45 34  4  0
 43 38  1  0
  2 23  4  0
  2 27  4  0
M  CHG  1  26  -1
M  END
$$$$

     RDKit          3D

 46 52  0  0  0  0  0  0  0  0999 V2000
   -7.6410    4.9930    6.8080 C   0  0  0  0  0  0  0  0  0  1  0  0
   -7.7310    4.0530    5.7140 C   0  0  0  0  0  0  0  0  0  2  0  0
   -6.4520    5.6300    6.8680 N   0  0  0  0  0  0  0  0  0  0  0  0
   -6.2260    6.5240    7.8670 N   0  0  0  0  0  0  0  0  0  0  0  0
   -7.1930    6.7500    8.7820 C   0  0  0  0  0  0  0  0  0  0  0  0
   -8.4240    6.1170    8.7580 C   0  0  0  0  0  0  0  0  0  0  0  0
   -9.3950    6.3570    9.7450 N   0  0  0  0  0  0  0  0  0  0  0  0
  -10.5620    5.6840    9.7600 C   0  0  0  0  0  0  0  0  0  0  0  0
  -11.5770    5.6820   10.5960 N   0  0  0  0  0  0  0  0  0  0  0  0
  -12.4690    4.7490   10.1080 N   0  0  0  0  0  0  0  0  0  0  0  0
  -12.0160    4.1880    8.9920 N   0  0  0  0  0  0  0  0  0  0  0  0
  -10.8400    4.7900    8.7610 N   0  0  0  0  0  0  0  0  0  0  0  0
   -9.9950    4.4790    7.6090 C   0  0  0  0  0  0  0  0  0  0  0  0
   -8.6630    5.2070    7.7200 C   0  0  0  0  0  0  0  0  0  0  0  0
  -10.7490    4.8610    6.3730 C   0  0  0  0  0  0  0  0  0  0  0  0
  -11.0350    6.2020    6.1170 C   0  0  0  0  0  0  0  0  0  0  0  0
  -11.7370    6.5580    4.9650 C   0  0  0  0  0  0  0  0  0  0  0  0
  -12.1550    5.5730    4.0710 C   0  0  0  0  0  0  0  0  0  0  0  0
  -11.8700    4.2310    4.3270 C   0  0  0  0  0  0  0  0  0  0  0  0
  -11.1660    3.8760    5.4790 C   0  0  0  0  0  0  0  0  0  0  0  0
  -12.0160    7.8660    4.7150 O   0  0  0  0  0  0  0  0  0  0  0  0
   -6.8990    7.6510    9.7710 O   0  0  0  0  0  0  0  0  0  0  0  0
   -6.7839    3.2113    5.2521 N   0  0  0  0  0  0  0  0  0  0  0  0
   -7.2734    2.4605    4.2737 N   0  0  0  0  0  0  0  0  0  0  0  0
   -8.5656    2.8064    4.1233 C   0  0  0  0  0  0  0  0  0  0  0  0
   -9.6407    2.1086    2.8691 S   0  0  0  0  0  0  0  0  0  0  0  0
   -9.2434    3.4008    1.6483 C   0  0  0  0  0  0  0  0  0  0  0  0
   -9.8720    3.0574    0.3364 C   0  0  0  0  0  0  0  0  0  0  0  0
  -10.8266    3.7575   -0.0990 O   0  0  0  0  0  0  0  0  0  0  0  0
   -9.3757    1.9477   -0.4265 N   0  0  0  0  0  0  0  0  0  0  0  0
   -9.9818    1.5363   -1.6977 C   0  0  0  0  0  0  0  0  0  0  0  0
  -11.2928    0.7668   -1.4334 C   0  0  0  0  0  0  0  0  0  0  0  0
  -11.9606    0.3382   -2.7165 C   0  0  0  0  0  0  0  0  0  0  0  0
  -12.5621    1.2927   -3.5535 C   0  0  0  0  0  0  0  0  0  0  0  0
  -13.1687    0.8971   -4.7496 C   0  0  0  0  0  0  0  0  0  0  0  0
  -13.1772   -0.4504   -5.1184 C   0  0  0  0  0  0  0  0  0  0  0  0
  -12.5844   -1.4065   -4.2899 C   0  0  0  0  0  0  0  0  0  0  0  0
  -11.9799   -1.0165   -3.0909 C   0  0  0  0  0  0  0  0  0  0  0  0
   -8.9999    0.7057   -2.5064 C   0  0  0  0  0  0  0  0  0  0  0  0
   -8.5842    1.1480   -3.7752 C   0  0  0  0  0  0  0  0  0  0  0  0
   -7.6959    0.3835   -4.5354 C   0  0  0  0  0  0  0  0  0  0  0  0
   -7.2134   -0.8281   -4.0390 C   0  0  0  0  0  0  0  0  0  0  0  0
   -7.6160   -1.2775   -2.7794 C   0  0  0  0  0  0  0  0  0  0  0  0
   -8.5036   -0.5160   -2.0141 C   0  0  0  0  0  0  0  0  0  0  0  0
   -8.9163    3.7676    4.9945 N   0  0  0  0  0  0  0  0  0  0  0  0
  -10.1212    4.4897    5.0149 N   0  0  0  0  0  0  0  0  0  0  0  0
  1  3  4  0
  1 14  4  0
  1  2  1  0
  3  4  4  0
  4  5  4  0
  5  6  4  0
  5 22  1  0
  6  7  1  0
  6 14  4  0
  7  8  1  0
  8  9  4  0
  8 12  4  0
  9 10  4  0
 10 11  4  0
 11 12  4  0
 12 13  1  0
 13 14  1  0
 13 15  1  6
 15 16  4  0
 15 20  4  0
 16 17  4  0
 17 18  4  0
 17 21  1  0
 18 19  4  0
 19 20  4  0
 23 24  4  0
 24 25  4  0
 25 26  1  0
 26 27  1  0
 27 28  1  0
 28 29  2  0
 28 30  1  0
 30 31  1  0
 31 32  1  0
 32 33  1  0
 33 34  4  0
 34 35  4  0
 35 36  4  0
 36 37  4  0
 37 38  4  0
 31 39  1  0
 39 40  4  0
 40 41  4  0
 41 42  4  0
 42 43  4  0
 43 44  4  0
 25 45  4  0
 45 46  1  0
 38 33  4  0
 44 39  4  0
  2 23  4  0
  2 45  4  0
M  END
$$$$

     RDKit          3D

 46 52  0  0  0  0  0  0  0  0999 V2000
   -7.6410    4.9930    6.8080 C   0  0  0  0  0  0  0  0  0  1  0  0
   -7.7310    4.0530    5.7140 C   0  0  0  0  0  0  0  0  0  2  0  0
   -6.4520    5.6300    6.8680 N   0  0  0  0  0  0  0  0  0  0  0  0
   -6.2260    6.5240    7.8670 N   0  0  0  0  0  0  0  0  0  0  0  0
   -7.1930    6.7500    8.7820 C   0  0  0  0  0  0  0  0  0  0  0  0
   -8.4240    6.1170    8.7580 C   0  0  0  0  0  0  0  0  0  0  0  0
   -9.3950    6.3570    9.7450 N   0  0  0  0  0  0  0  0  0  0  0  0
  -10.5620    5.6840    9.7600 C   0  0  0  0  0  0  0  0  0  0  0  0
  -11.5770    5.6820   10.5960 N   0  0  0  0  0  0  0  0  0  0  0  0
  -12.4690    4.7490   10.1080 N   0  0  0  0  0  0  0  0  0  0  0  0
  -12.0160    4.1880    8.9920 N   0  0  0  0  0  0  0  0  0  0  0  0
  -10.8400    4.7900    8.7610 N   0  0  0  0  0  0  0  0  0  0  0  0
   -9.9950    4.4790    7.6090 C   0  0  0  0  0  0  0  0  0  0  0  0
   -8.6630    5.2070    7.7200 C   0  0  0  0  0  0  0  0  0  0  0  0
  -10.7490    4.8610    6.3730 C   0  0  0  0  0  0  0  0  0  0  0  0
  -11.0350    6.2020    6.1170 C   0  0  0  0  0  0  0  0  0  0  0  0
  -11.7370    6.5580    4.9650 C   0  0  0  0  0  0  0  0  0  0  0  0
  -12.1550    5.5730    4.0710 C   0  0  0  0  0  0  0  0  0  0  0  0
  -11.8700    4.2310    4.3270 C   0  0  0  0  0  0  0  0  0  0  0  0
  -11.1660    3.8760    5.4790 C   0  0  0  0  0  0  0  0  0  0  0  0
  -12.0160    7.8660    4.7150 O   0  0  0  0  0  0  0  0  0  0  0  0
   -6.8990    7.6510    9.7710 O   0  0  0  0  0  0  0  0  0  0  0  0
   -6.7927    3.1926    5.2686 N   0  0  0  0  0  0  0  0  0  0  0  0
   -7.2845    2.4434    4.2893 N   0  0  0  0  0  0  0  0  0  0  0  0
   -8.5693    2.8098    4.1227 C   0  0  0  0  0  0  0  0  0  0  0  0
   -9.6482    2.1197    2.8660 S   0  0  0  0  0  0  0  0  0  0  0  0
  -10.3493    0.8383    3.9626 C   0  0  0  0  0  0  0  0  0  0  0  0
   -9.3349   -0.2305    4.2641 C   0  0  0  0  0  0  0  0  0  0  0  0
   -8.8688   -0.3094    5.4325 O   0  0  0  0  0  0  0  0  0  0  0  0
   -8.8704   -1.1558    3.2658 N   0  0  0  0  0  0  0  0  0  0  0  0
   -9.5120   -1.3409    1.9555 C   0  0  0  0  0  0  0  0  0  0  0  0
   -8.6168   -2.1601    0.9960 C   0  0  0  0  0  0  0  0  0  0  0  0
   -8.4445   -3.6083    1.3963 C   0  0  0  0  0  0  0  0  0  0  0  0
   -7.3030   -4.0225    2.1051 C   0  0  0  0  0  0  0  0  0  0  0  0
   -7.1409   -5.3656    2.4594 C   0  0  0  0  0  0  0  0  0  0  0  0
   -8.1080   -6.3073    2.0974 C   0  0  0  0  0  0  0  0  0  0  0  0
   -9.2350   -5.9090    1.3745 C   0  0  0  0  0  0  0  0  0  0  0  0
   -9.3995   -4.5677    1.0164 C   0  0  0  0  0  0  0  0  0  0  0  0
  -10.8956   -1.9497    2.0934 C   0  0  0  0  0  0  0  0  0  0  0  0
  -11.1961   -2.8627    3.1240 C   0  0  0  0  0  0  0  0  0  0  0  0
  -12.4704   -3.4298    3.2159 C   0  0  0  0  0  0  0  0  0  0  0  0
  -13.4550   -3.0964    2.2831 C   0  0  0  0  0  0  0  0  0  0  0  0
  -13.1663   -2.1977    1.2534 C   0  0  0  0  0  0  0  0  0  0  0  0
  -11.8931   -1.6284    1.1559 C   0  0  0  0  0  0  0  0  0  0  0  0
   -8.9110    3.7842    4.9820 N   0  0  0  0  0  0  0  0  0  0  0  0
  -10.1074    4.5208    4.9921 N   0  0  0  0  0  0  0  0  0  0  0  0
  1  3  4  0
  1 14  4  0
  1  2  1  0
  3  4  4  0
  4  5  4  0
  5  6  4  0
  5 22  1  0
  6  7  1  0
  6 14  4  0
  7  8  1  0
  8  9  4  0
  8 12  4  0
  9 10  4  0
 10 11  4  0
 11 12  4  0
 12 13  1  0
 13 14  1  0
 13 15  1  6
 15 16  4  0
 15 20  4  0
 16 17  4  0
 17 18  4  0
 17 21  1  0
 18 19  4  0
 19 20  4  0
 23 24  4  0
 24 25  4  0
 25 26  1  0
 26 27  1  0
 27 28  1  0
 28 29  2  0
 28 30  1  0
 30 31  1  0
 31 32  1  0
 32 33  1  0
 33 34  4  0
 34 35  4  0
 35 36  4  0
 36 37  4  0
 37 38  4  0
 31 39  1  0
 39 40  4  0
 40 41  4  0
 41 42  4  0
 42 43  4  0
 43 44  4  0
 25 45  4  0
 45 46  1  0
 38 33  4  0
 44 39  4  0
  2 23  4  0
  2 45  4  0
M  END
$$$$

     RDKit          3D

 46 52  0  0  0  0  0  0  0  0999 V2000
   -7.6410    4.9930    6.8080 C   0  0  0  0  0  0  0  0  0  1  0  0
   -7.7310    4.0530    5.7140 C   0  0  0  0  0  0  0  0  0  2  0  0
   -6.4520    5.6300    6.8680 N   0  0  0  0  0  0  0  0  0  0  0  0
   -6.2260    6.5240    7.8670 N   0  0  0  0  0  0  0  0  0  0  0  0
   -7.1930    6.7500    8.7820 C   0  0  0  0  0  0  0  0  0  0  0  0
   -8.4240    6.1170    8.7580 C   0  0  0  0  0  0  0  0  0  0  0  0
   -9.3950    6.3570    9.7450 N   0  0  0  0  0  0  0  0  0  0  0  0
  -10.5620    5.6840    9.7600 C   0  0  0  0  0  0  0  0  0  0  0  0
  -11.5770    5.6820   10.5960 N   0  0  0  0  0  0  0  0  0  0  0  0
  -12.4690    4.7490   10.1080 N   0  0  0  0  0  0  0  0  0  0  0  0
  -12.0160    4.1880    8.9920 N   0  0  0  0  0  0  0  0  0  0  0  0
  -10.8400    4.7900    8.7610 N   0  0  0  0  0  0  0  0  0  0  0  0
   -9.9950    4.4790    7.6090 C   0  0  0  0  0  0  0  0  0  0  0  0
   -8.6630    5.2070    7.7200 C   0  0  0  0  0  0  0  0  0  0  0  0
  -10.7490    4.8610    6.3730 C   0  0  0  0  0  0  0  0  0  0  0  0
  -11.0350    6.2020    6.1170 C   0  0  0  0  0  0  0  0  0  0  0  0
  -11.7370    6.5580    4.9650 C   0  0  0  0  0  0  0  0  0  0  0  0
  -12.1550    5.5730    4.0710 C   0  0  0  0  0  0  0  0  0  0  0  0
  -11.8700    4.2310    4.3270 C   0  0  0  0  0  0  0  0  0  0  0  0
  -11.1660    3.8760    5.4790 C   0  0  0  0  0  0  0  0  0  0  0  0
  -12.0160    7.8660    4.7150 O   0  0  0  0  0  0  0  0  0  0  0  0
   -6.8990    7.6510    9.7710 O   0  0  0  0  0  0  0  0  0  0  0  0
   -6.8055    3.1609    5.2977 N   0  0  0  0  0  0  0  0  0  0  0  0
   -7.2475    2.5176    4.2269 N   0  0  0  0  0  0  0  0  0  0  0  0
   -8.4929    2.9764    3.9783 C   0  0  0  0  0  0  0  0  0  0  0  0
   -9.4236    2.5496    2.5101 S   0  0  0  0  0  0  0  0  0  0  0  0
  -10.2783    1.1130    3.2531 C   0  0  0  0  0  0  0  0  0  0  0  0
  -11.7522    1.2657    3.0603 C   0  0  0  0  0  0  0  0  0  0  0  0
  -12.2061    1.3985    1.8927 O   0  0  0  0  0  0  0  0  0  0  0  0
  -12.6360    1.2672    4.1950 N   0  0  0  0  0  0  0  0  0  0  0  0
  -13.9595    0.6339    4.2377 C   0  0  0  0  0  0  0  0  0  0  0  0
  -14.8228    0.9644    3.0063 C   0  0  0  0  0  0  0  0  0  0  0  0
  -16.2498    0.4869    3.1815 C   0  0  0  0  0  0  0  0  0  0  0  0
  -17.1374    1.1765    4.0316 C   0  0  0  0  0  0  0  0  0  0  0  0
  -18.4602    0.7310    4.1826 C   0  0  0  0  0  0  0  0  0  0  0  0
  -18.8994   -0.4168    3.5040 C   0  0  0  0  0  0  0  0  0  0  0  0
  -18.0216   -1.1125    2.6631 C   0  0  0  0  0  0  0  0  0  0  0  0
  -16.7035   -0.6614    2.4976 C   0  0  0  0  0  0  0  0  0  0  0  0
  -13.8269   -0.8623    4.4453 C   0  0  0  0  0  0  0  0  0  0  0  0
  -14.3992   -1.4614    5.5799 C   0  0  0  0  0  0  0  0  0  0  0  0
  -14.3224   -2.8453    5.7640 C   0  0  0  0  0  0  0  0  0  0  0  0
  -13.6609   -3.6417    4.8271 C   0  0  0  0  0  0  0  0  0  0  0  0
  -13.0874   -3.0605    3.6932 C   0  0  0  0  0  0  0  0  0  0  0  0
  -13.1707   -1.6798    3.5000 C   0  0  0  0  0  0  0  0  0  0  0  0
   -8.8575    3.9035    4.8781 N   0  0  0  0  0  0  0  0  0  0  0  0
   -9.9989    4.7239    4.8310 N   0  0  0  0  0  0  0  0  0  0  0  0
  1  3  4  0
  1 14  4  0
  1  2  1  0
  3  4  4  0
  4  5  4  0
  5  6  4  0
  5 22  1  0
  6  7  1  0
  6 14  4  0
  7  8  1  0
  8  9  4  0
  8 12  4  0
  9 10  4  0
 10 11  4  0
 11 12  4  0
 12 13  1  0
 13 14  1  0
 13 15  1  6
 15 16  4  0
 15 20  4  0
 16 17  4  0
 17 18  4  0
 17 21  1  0
 18 19  4  0
 19 20  4  0
 23 24  4  0
 24 25  4  0
 25 26  1  0
 26 27  1  0
 27 28  1  0
 28 29  2  0
 28 30  1  0
 30 31  1  0
 31 32  1  0
 32 33  1  0
 33 34  4  0
 34 35  4  0
 35 36  4  0
 36 37  4  0
 37 38  4  0
 31 39  1  0
 39 40  4  0
 40 41  4  0
 41 42  4  0
 42 43  4  0
 43 44  4  0
 25 45  4  0
 45 46  1  0
 38 33  4  0
 44 39  4  0
  2 23  4  0
  2 45  4  0
M  END
$$$$

     RDKit          3D

 45 51  0  0  0  0  0  0  0  0999 V2000
   -7.6410    4.9930    6.8080 C   0  0  0  0  0  0  0  0  0  1  0  0
   -7.7310    4.0530    5.7140 C   0  0  0  0  0  0  0  0  0  2  0  0
   -6.4520    5.6300    6.8680 N   0  0  0  0  0  0  0  0  0  0  0  0
   -6.2260    6.5240    7.8670 N   0  0  0  0  0  0  0  0  0  0  0  0
   -7.1930    6.7500    8.7820 C   0  0  0  0  0  0  0  0  0  0  0  0
   -8.4240    6.1170    8.7580 C   0  0  0  0  0  0  0  0  0  0  0  0
   -9.3950    6.3570    9.7450 N   0  0  0  0  0  0  0  0  0  0  0  0
  -10.5620    5.6840    9.7600 C   0  0  0  0  0  0  0  0  0  0  0  0
  -11.5770    5.6820   10.5960 N   0  0  0  0  0  0  0  0  0  0  0  0
  -12.4690    4.7490   10.1080 N   0  0  0  0  0  0  0  0  0  0  0  0
  -12.0160    4.1880    8.9920 N   0  0  0  0  0  0  0  0  0  0  0  0
  -10.8400    4.7900    8.7610 N   0  0  0  0  0  0  0  0  0  0  0  0
   -9.9950    4.4790    7.6090 C   0  0  0  0  0  0  0  0  0  0  0  0
   -8.6630    5.2070    7.7200 C   0  0  0  0  0  0  0  0  0  0  0  0
  -10.7490    4.8610    6.3730 C   0  0  0  0  0  0  0  0  0  0  0  0
  -11.0350    6.2020    6.1170 C   0  0  0  0  0  0  0  0  0  0  0  0
  -11.7370    6.5580    4.9650 C   0  0  0  0  0  0  0  0  0  0  0  0
  -12.1550    5.5730    4.0710 C   0  0  0  0  0  0  0  0  0  0  0  0
  -11.8700    4.2310    4.3270 C   0  0  0  0  0  0  0  0  0  0  0  0
  -11.1660    3.8760    5.4790 C   0  0  0  0  0  0  0  0  0  0  0  0
  -12.0160    7.8660    4.7150 O   0  0  0  0  0  0  0  0  0  0  0  0
   -6.8990    7.6510    9.7710 O   0  0  0  0  0  0  0  0  0  0  0  0
   -6.8866    3.0348    5.4354 N   0  0  0  0  0  0  0  0  0  0  0  0
   -7.3263    2.3657    4.3807 N   0  0  0  0  0  0  0  0  0  0  0  0
   -8.4839    2.9412    4.0070 C   0  0  0  0  0  0  0  0  0  0  0  0
   -9.4346    2.4135    2.5689 S   0  0  0  0  0  0  0  0  0  0  0  0
   -8.8075    3.9763    4.8065 N   0  0  0  0  0  0  0  0  0  0  0  0
   -9.8790    4.9557    4.5971 C   0  0  0  0  0  0  0  0  0  0  0  0
   -9.5703    5.8133    3.4063 C   0  0  0  0  0  0  0  0  0  0  0  0
  -10.3893    5.8496    2.4445 O   0  0  0  0  0  0  0  0  0  0  0  0
   -8.3579    6.5857    3.3751 N   0  0  0  0  0  0  0  0  0  0  0  0
   -7.8318    7.2361    2.2093 C   0  0  0  0  0  0  0  0  0  0  0  0
   -6.6753    7.9340    2.2317 N   0  0  0  0  0  0  0  0  0  0  0  0
   -6.3499    8.4186    1.0021 C   0  0  0  0  0  0  0  0  0  1  0  0
   -5.1125    9.1992    0.7752 C   0  0  0  0  0  0  0  0  0  2  0  0
   -5.1785   10.5326    0.2953 C   0  0  0  0  0  0  0  0  0  0  0  0
   -6.4912   11.2032   -0.0147 C   0  0  0  0  0  0  0  0  0  0  0  0
   -3.9913   11.2480    0.0750 C   0  0  0  0  0  0  0  0  0  0  0  0
   -2.7473   10.6818    0.3674 C   0  0  0  0  0  0  0  0  0  0  0  0
   -1.4951   11.4635    0.1077 C   0  0  0  0  0  0  0  0  0  0  0  0
   -2.6793    9.3692    0.8473 C   0  0  0  0  0  0  0  0  0  0  0  0
   -3.8470    8.6189    1.0529 C   0  0  0  0  0  0  0  0  0  0  0  0
   -3.7230    7.2047    1.5660 C   0  0  0  0  0  0  0  0  0  0  0  0
   -7.2465    8.0973   -0.0165 C   0  0  0  0  0  0  0  0  0  0  0  0
   -8.4844    7.1791    0.6553 S   0  0  0  0  0  0  0  0  0  0  0  0
  1  3  4  0
  1 14  4  0
  1  2  1  0
  3  4  4  0
  4  5  4  0
  5  6  4  0
  5 22  1  0
  6  7  1  0
  6 14  4  0
  7  8  1  0
  8  9  4  0
  8 12  4  0
  9 10  4  0
 10 11  4  0
 11 12  4  0
 12 13  1  0
 13 14  1  0
 13 15  1  6
 15 16  4  0
 15 20  4  0
 16 17  4  0
 17 18  4  0
 17 21  1  0
 18 19  4  0
 19 20  4  0
 23 24  4  0
 24 25  4  0
 25 26  1  0
 25 27  4  0
 27 28  1  0
 28 29  1  0
 29 30  2  0
 29 31  1  0
 31 32  1  0
 32 33  4  0
 33 34  4  0
 34 35  1  0
 35 36  4  0
 36 37  1  0
 36 38  4  0
 38 39  4  0
 39 40  1  0
 39 41  4  0
 41 42  4  0
 42 43  1  0
 34 44  4  0
 44 45  4  0
 45 32  4  0
 42 35  4  0
  2 23  4  0
  2 27  4  0
M  CHG  1  26  -1
M  END
$$$$

     RDKit          3D

 45 51  0  0  0  0  0  0  0  0999 V2000
   -7.6410    4.9930    6.8080 C   0  0  0  0  0  0  0  0  0  1  0  0
   -7.7310    4.0530    5.7140 C   0  0  0  0  0  0  0  0  0  2  0  0
   -6.4520    5.6300    6.8680 N   0  0  0  0  0  0  0  0  0  0  0  0
   -6.2260    6.5240    7.8670 N   0  0  0  0  0  0  0  0  0  0  0  0
   -7.1930    6.7500    8.7820 C   0  0  0  0  0  0  0  0  0  0  0  0
   -8.4240    6.1170    8.7580 C   0  0  0  0  0  0  0  0  0  0  0  0
   -9.3950    6.3570    9.7450 N   0  0  0  0  0  0  0  0  0  0  0  0
  -10.5620    5.6840    9.7600 C   0  0  0  0  0  0  0  0  0  0  0  0
  -11.5770    5.6820   10.5960 N   0  0  0  0  0  0  0  0  0  0  0  0
  -12.4690    4.7490   10.1080 N   0  0  0  0  0  0  0  0  0  0  0  0
  -12.0160    4.1880    8.9920 N   0  0  0  0  0  0  0  0  0  0  0  0
  -10.8400    4.7900    8.7610 N   0  0  0  0  0  0  0  0  0  0  0  0
   -9.9950    4.4790    7.6090 C   0  0  0  0  0  0  0  0  0  0  0  0
   -8.6630    5.2070    7.7200 C   0  0  0  0  0  0  0  0  0  0  0  0
  -10.7490    4.8610    6.3730 C   0  0  0  0  0  0  0  0  0  0  0  0
  -11.0350    6.2020    6.1170 C   0  0  0  0  0  0  0  0  0  0  0  0
  -11.7370    6.5580    4.9650 C   0  0  0  0  0  0  0  0  0  0  0  0
  -12.1550    5.5730    4.0710 C   0  0  0  0  0  0  0  0  0  0  0  0
  -11.8700    4.2310    4.3270 C   0  0  0  0  0  0  0  0  0  0  0  0
  -11.1660    3.8760    5.4790 C   0  0  0  0  0  0  0  0  0  0  0  0
  -12.0160    7.8660    4.7150 O   0  0  0  0  0  0  0  0  0  0  0  0
   -6.8990    7.6510    9.7710 O   0  0  0  0  0  0  0  0  0  0  0  0
   -6.8364    3.1054    5.3703 N   0  0  0  0  0  0  0  0  0  0  0  0
   -7.3048    2.3822    4.3644 N   0  0  0  0  0  0  0  0  0  0  0  0
   -8.5311    2.8527    4.0822 C   0  0  0  0  0  0  0  0  0  0  0  0
   -9.5569    2.2090    2.7424 S   0  0  0  0  0  0  0  0  0  0  0  0
   -8.8679    3.8802    4.8890 N   0  0  0  0  0  0  0  0  0  0  0  0
  -10.0311    4.7649    4.7565 C   0  0  0  0  0  0  0  0  0  0  0  0
   -9.9694    5.5162    3.4594 C   0  0  0  0  0  0  0  0  0  0  0  0
   -8.9752    6.2537    3.2198 O   0  0  0  0  0  0  0  0  0  0  0  0
  -11.0337    5.3947    2.5048 N   0  0  0  0  0  0  0  0  0  0  0  0
  -10.8866    5.7062    1.1159 C   0  0  0  0  0  0  0  0  0  0  0  0
   -9.7274    6.1027    0.5486 N   0  0  0  0  0  0  0  0  0  0  0  0
   -9.8532    6.2392   -0.7989 C   0  0  0  0  0  0  0  0  0  1  0  0
   -8.7122    6.6328   -1.6484 C   0  0  0  0  0  0  0  0  0  2  0  0
   -8.1035    5.6853   -2.5078 C   0  0  0  0  0  0  0  0  0  0  0  0
   -8.5803    4.2583   -2.5647 C   0  0  0  0  0  0  0  0  0  0  0  0
   -7.0335    6.0793   -3.3268 C   0  0  0  0  0  0  0  0  0  0  0  0
   -6.5528    7.3935   -3.2938 C   0  0  0  0  0  0  0  0  0  0  0  0
   -5.3693    7.7827   -4.1300 C   0  0  0  0  0  0  0  0  0  0  0  0
   -7.1320    8.3193   -2.4178 C   0  0  0  0  0  0  0  0  0  0  0  0
   -8.2146    7.9556   -1.6001 C   0  0  0  0  0  0  0  0  0  0  0  0
   -8.8227    8.9843   -0.6815 C   0  0  0  0  0  0  0  0  0  0  0  0
  -11.1150    5.9453   -1.3120 C   0  0  0  0  0  0  0  0  0  0  0  0
  -12.1016    5.4956   -0.0270 S   0  0  0  0  0  0  0  0  0  0  0  0
  1  3  4  0
  1 14  4  0
  1  2  1  0
  3  4  4  0
  4  5  4  0
  5  6  4  0
  5 22  1  0
  6  7  1  0
  6 14  4  0
  7  8  1  0
  8  9  4  0
  8 12  4  0
  9 10  4  0
 10 11  4  0
 11 12  4  0
 12 13  1  0
 13 14  1  0
 13 15  1  6
 15 16  4  0
 15 20  4  0
 16 17  4  0
 17 18  4  0
 17 21  1  0
 18 19  4  0
 19 20  4  0
 23 24  4  0
 24 25  4  0
 25 26  1  0
 25 27  4  0
 27 28  1  0
 28 29  1  0
 29 30  2  0
 29 31  1  0
 31 32  1  0
 32 33  4  0
 33 34  4  0
 34 35  1  0
 35 36  4  0
 36 37  1  0
 36 38  4  0
 38 39  4  0
 39 40  1  0
 39 41  4  0
 41 42  4  0
 42 43  1  0
 34 44  4  0
 44 45  4  0
 45 32  4  0
 42 35  4  0
  2 23  4  0
  2 27  4  0
M  CHG  1  26  -1
M  END
$$$$

     RDKit          3D

 45 51  0  0  0  0  0  0  0  0999 V2000
   -7.6410    4.9930    6.8080 C   0  0  0  0  0  0  0  0  0  1  0  0
   -7.7310    4.0530    5.7140 C   0  0  0  0  0  0  0  0  0  2  0  0
   -6.4520    5.6300    6.8680 N   0  0  0  0  0  0  0  0  0  0  0  0
   -6.2260    6.5240    7.8670 N   0  0  0  0  0  0  0  0  0  0  0  0
   -7.1930    6.7500    8.7820 C   0  0  0  0  0  0  0  0  0  0  0  0
   -8.4240    6.1170    8.7580 C   0  0  0  0  0  0  0  0  0  0  0  0
   -9.3950    6.3570    9.7450 N   0  0  0  0  0  0  0  0  0  0  0  0
  -10.5620    5.6840    9.7600 C   0  0  0  0  0  0  0  0  0  0  0  0
  -11.5770    5.6820   10.5960 N   0  0  0  0  0  0  0  0  0  0  0  0
  -12.4690    4.7490   10.1080 N   0  0  0  0  0  0  0  0  0  0  0  0
  -12.0160    4.1880    8.9920 N   0  0  0  0  0  0  0  0  0  0  0  0
  -10.8400    4.7900    8.7610 N   0  0  0  0  0  0  0  0  0  0  0  0
   -9.9950    4.4790    7.6090 C   0  0  0  0  0  0  0  0  0  0  0  0
   -8.6630    5.2070    7.7200 C   0  0  0  0  0  0  0  0  0  0  0  0
  -10.7490    4.8610    6.3730 C   0  0  0  0  0  0  0  0  0  0  0  0
  -11.0350    6.2020    6.1170 C   0  0  0  0  0  0  0  0  0  0  0  0
  -11.7370    6.5580    4.9650 C   0  0  0  0  0  0  0  0  0  0  0  0
  -12.1550    5.5730    4.0710 C   0  0  0  0  0  0  0  0  0  0  0  0
  -11.8700    4.2310    4.3270 C   0  0  0  0  0  0  0  0  0  0  0  0
  -11.1660    3.8760    5.4790 C   0  0  0  0  0  0  0  0  0  0  0  0
  -12.0160    7.8660    4.7150 O   0  0  0  0  0  0  0  0  0  0  0  0
   -6.8990    7.6510    9.7710 O   0  0  0  0  0  0  0  0  0  0  0  0
   -6.8739    3.0496    5.4217 N   0  0  0  0  0  0  0  0  0  0  0  0
   -7.2988    2.3974    4.3497 N   0  0  0  0  0  0  0  0  0  0  0  0
   -8.4557    2.9728    3.9758 C   0  0  0  0  0  0  0  0  0  0  0  0
   -9.3751    2.4814    2.5029 S   0  0  0  0  0  0  0  0  0  0  0  0
   -8.7998    3.9845    4.7979 N   0  0  0  0  0  0  0  0  0  0  0  0
   -9.8671    4.9680    4.5885 C   0  0  0  0  0  0  0  0  0  0  0  0
   -9.3903    6.0697    3.6837 C   0  0  0  0  0  0  0  0  0  0  0  0
   -8.3051    6.6539    3.9454 O   0  0  0  0  0  0  0  0  0  0  0  0
  -10.1121    6.4388    2.5018 N   0  0  0  0  0  0  0  0  0  0  0  0
  -11.5407    6.5324    2.4252 C   0  0  0  0  0  0  0  0  0  0  0  0
  -12.1921    6.7335    1.2607 N   0  0  0  0  0  0  0  0  0  0  0  0
  -13.5321    6.8781    1.4481 C   0  0  0  0  0  0  0  0  0  1  0  0
  -14.4533    7.1060    0.3131 C   0  0  0  0  0  0  0  0  0  2  0  0
  -15.2016    8.3071    0.2228 C   0  0  0  0  0  0  0  0  0  0  0  0
  -15.1015    9.3859    1.2725 C   0  0  0  0  0  0  0  0  0  0  0  0
  -16.0714    8.5016   -0.8610 C   0  0  0  0  0  0  0  0  0  0  0  0
  -16.1726    7.5479   -1.8793 C   0  0  0  0  0  0  0  0  0  0  0  0
  -17.1175    7.7593   -3.0256 C   0  0  0  0  0  0  0  0  0  0  0  0
  -15.4336    6.3640   -1.7922 C   0  0  0  0  0  0  0  0  0  0  0  0
  -14.5796    6.1273   -0.7039 C   0  0  0  0  0  0  0  0  0  0  0  0
  -13.8060    4.8346   -0.6518 C   0  0  0  0  0  0  0  0  0  0  0  0
  -13.9564    6.8021    2.7738 C   0  0  0  0  0  0  0  0  0  0  0  0
  -12.5997    6.5596    3.7362 S   0  0  0  0  0  0  0  0  0  0  0  0
  1  3  4  0
  1 14  4  0
  1  2  1  0
  3  4  4  0
  4  5  4  0
  5  6  4  0
  5 22  1  0
  6  7  1  0
  6 14  4  0
  7  8  1  0
  8  9  4  0
  8 12  4  0
  9 10  4  0
 10 11  4  0
 11 12  4  0
 12 13  1  0
 13 14  1  0
 13 15  1  6
 15 16  4  0
 15 20  4  0
 16 17  4  0
 17 18  4  0
 17 21  1  0
 18 19  4  0
 19 20  4  0
 23 24  4  0
 24 25  4  0
 25 26  1  0
 25 27  4  0
 27 28  1  0
 28 29  1  0
 29 30  2  0
 29 31  1  0
 31 32  1  0
 32 33  4  0
 33 34  4  0
 34 35  1  0
 35 36  4  0
 36 37  1  0
 36 38  4  0
 38 39  4  0
 39 40  1  0
 39 41  4  0
 41 42  4  0
 42 43  1  0
 34 44  4  0
 44 45  4  0
 45 32  4  0
 42 35  4  0
  2 23  4  0
  2 27  4  0
M  CHG  1  26  -1
M  END
$$$$

     RDKit          3D

 41 47  0  0  0  0  0  0  0  0999 V2000
   -7.6410    4.9930    6.8080 C   0  0  0  0  0  0  0  0  0  1  0  0
   -7.7310    4.0530    5.7140 C   0  0  0  0  0  0  0  0  0  2  0  0
   -6.4520    5.6300    6.8680 N   0  0  0  0  0  0  0  0  0  0  0  0
   -6.2260    6.5240    7.8670 N   0  0  0  0  0  0  0  0  0  0  0  0
   -7.1930    6.7500    8.7820 C   0  0  0  0  0  0  0  0  0  0  0  0
   -8.4240    6.1170    8.7580 C   0  0  0  0  0  0  0  0  0  0  0  0
   -9.3950    6.3570    9.7450 N   0  0  0  0  0  0  0  0  0  0  0  0
  -10.5620    5.6840    9.7600 C   0  0  0  0  0  0  0  0  0  0  0  0
  -11.5770    5.6820   10.5960 N   0  0  0  0  0  0  0  0  0  0  0  0
  -12.4690    4.7490   10.1080 N   0  0  0  0  0  0  0  0  0  0  0  0
  -12.0160    4.1880    8.9920 N   0  0  0  0  0  0  0  0  0  0  0  0
  -10.8400    4.7900    8.7610 N   0  0  0  0  0  0  0  0  0  0  0  0
   -9.9950    4.4790    7.6090 C   0  0  0  0  0  0  0  0  0  0  0  0
   -8.6630    5.2070    7.7200 C   0  0  0  0  0  0  0  0  0  0  0  0
  -10.7490    4.8610    6.3730 C   0  0  0  0  0  0  0  0  0  0  0  0
  -11.0350    6.2020    6.1170 C   0  0  0  0  0  0  0  0  0  0  0  0
  -11.7370    6.5580    4.9650 C   0  0  0  0  0  0  0  0  0  0  0  0
  -12.1550    5.5730    4.0710 C   0  0  0  0  0  0  0  0  0  0  0  0
  -11.8700    4.2310    4.3270 C   0  0  0  0  0  0  0  0  0  0  0  0
  -11.1660    3.8760    5.4790 C   0  0  0  0  0  0  0  0  0  0  0  0
  -12.0160    7.8660    4.7150 O   0  0  0  0  0  0  0  0  0  0  0  0
   -6.8990    7.6510    9.7710 O   0  0  0  0  0  0  0  0  0  0  0  0
   -6.8368    3.0376    5.5141 N   0  0  0  0  0  0  0  0  0  0  0  0
   -6.9684    2.0510    4.5714 C   0  0  0  0  0  0  0  0  0  0  0  0
   -5.9397    1.0622    4.4375 N   0  0  0  0  0  0  0  0  0  0  0  0
   -5.9883   -0.0013    3.4360 C   0  0  0  0  0  0  0  0  0  0  0  0
   -5.6422    0.5518    2.0503 C   0  0  0  0  0  0  0  0  0  0  0  0
   -5.7027   -0.5334    1.0124 C   0  0  0  0  0  0  0  0  0  0  0  0
   -6.6603   -0.4983   -0.0132 C   0  0  0  0  0  0  0  0  0  0  0  0
   -6.6846   -1.5219   -0.9627 C   0  0  0  0  0  0  0  0  0  0  0  0
   -5.7596   -2.5643   -0.8854 C   0  0  0  0  0  0  0  0  0  0  0  0
   -4.8189   -2.5667    0.1464 C   0  0  0  0  0  0  0  0  0  0  0  0
   -4.8102   -1.5617    1.0625 N   0  0  0  0  0  0  0  0  0  0  0  0
   -8.0815    2.0060    3.7779 N   0  0  0  0  0  0  0  0  0  0  0  0
   -9.0277    2.9600    3.9354 C   0  0  0  0  0  0  0  0  0  0  0  0
  -10.1493    3.0876    3.2050 N   0  0  0  0  0  0  0  0  0  0  0  0
  -10.7544    4.1852    3.6467 N   0  0  0  0  0  0  0  0  0  0  0  0
  -11.9781    4.7171    3.0592 C   0  0  0  0  0  0  0  0  0  0  0  0
  -10.0179    4.7581    4.6310 C   0  0  0  0  0  0  0  0  0  0  0  0
  -10.2867    6.0470    5.1905 N   0  0  0  0  0  0  0  0  0  0  0  0
   -8.9024    3.9679    4.8490 C   0  0  0  0  0  0  0  0  0  0  0  0
  1  3  4  0
  1 14  4  0
  1  2  1  0
  3  4  4  0
  4  5  4  0
  5  6  4  0
  5 22  1  0
  6  7  1  0
  6 14  4  0
  7  8  1  0
  8  9  4  0
  8 12  4  0
  9 10  4  0
 10 11  4  0
 11 12  4  0
 12 13  1  0
 13 14  1  0
 13 15  1  6
 15 16  4  0
 15 20  4  0
 16 17  4  0
 17 18  4  0
 17 21  1  0
 18 19  4  0
 19 20  4  0
 23 24  4  0
 24 25  1  0
 25 26  1  0
 26 27  1  0
 27 28  1  0
 28 29  4  0
 29 30  4  0
 30 31  4  0
 31 32  4  0
 32 33  4  0
 24 34  4  0
 34 35  4  0
 35 36  4  0
 36 37  4  0
 37 38  1  0
 37 39  4  0
 39 40  1  0
 39 41  4  0
 33 28  4  0
 41 35  4  0
  2 23  4  0
  2 41  4  0
M  END
$$$$

     RDKit          3D

 36 41  0  0  0  0  0  0  0  0999 V2000
   -7.6410    4.9930    6.8080 C   0  0  0  0  0  0  0  0  0  1  0  0
   -7.7310    4.0530    5.7140 C   0  0  0  0  0  0  0  0  0  2  0  0
   -6.4520    5.6300    6.8680 N   0  0  0  0  0  0  0  0  0  0  0  0
   -6.2260    6.5240    7.8670 N   0  0  0  0  0  0  0  0  0  0  0  0
   -7.1930    6.7500    8.7820 C   0  0  0  0  0  0  0  0  0  0  0  0
   -8.4240    6.1170    8.7580 C   0  0  0  0  0  0  0  0  0  0  0  0
   -9.3950    6.3570    9.7450 N   0  0  0  0  0  0  0  0  0  0  0  0
  -10.5620    5.6840    9.7600 C   0  0  0  0  0  0  0  0  0  0  0  0
  -11.5770    5.6820   10.5960 N   0  0  0  0  0  0  0  0  0  0  0  0
  -12.4690    4.7490   10.1080 N   0  0  0  0  0  0  0  0  0  0  0  0
  -12.0160    4.1880    8.9920 N   0  0  0  0  0  0  0  0  0  0  0  0
  -10.8400    4.7900    8.7610 N   0  0  0  0  0  0  0  0  0  0  0  0
   -9.9950    4.4790    7.6090 C   0  0  0  0  0  0  0  0  0  0  0  0
   -8.6630    5.2070    7.7200 C   0  0  0  0  0  0  0  0  0  0  0  0
  -10.7490    4.8610    6.3730 C   0  0  0  0  0  0  0  0  0  0  0  0
  -11.0350    6.2020    6.1170 C   0  0  0  0  0  0  0  0  0  0  0  0
  -11.7370    6.5580    4.9650 C   0  0  0  0  0  0  0  0  0  0  0  0
  -12.1550    5.5730    4.0710 C   0  0  0  0  0  0  0  0  0  0  0  0
  -11.8700    4.2310    4.3270 C   0  0  0  0  0  0  0  0  0  0  0  0
  -11.1660    3.8760    5.4790 C   0  0  0  0  0  0  0  0  0  0  0  0
  -12.0160    7.8660    4.7150 O   0  0  0  0  0  0  0  0  0  0  0  0
   -6.8990    7.6510    9.7710 O   0  0  0  0  0  0  0  0  0  0  0  0
   -6.9884    2.8556    5.6936 C   0  0  0  0  0  0  0  0  0  0  0  0
   -7.1030    1.8939    4.6822 C   0  0  0  0  0  0  0  0  0  0  0  0
   -6.2327    0.6662    4.7414 C   0  0  0  0  0  0  0  0  0  0  0  0
   -8.0299    2.0911    3.6327 C   0  0  0  0  0  0  0  0  0  0  0  0
   -8.8400    3.2468    3.6203 C   0  0  0  0  0  0  0  0  0  0  0  0
   -8.7006    4.2174    4.6408 C   0  0  0  0  0  0  0  0  0  0  0  0
   -9.6228    5.7279    4.5854 Cl  0  0  0  0  0  0  0  0  0  0  0  0
   -9.7758    3.4656    2.4513 C   0  0  0  0  0  0  0  0  0  0  0  0
   -9.0733    4.2625    1.3439 C   0  0  0  0  0  0  0  0  0  0  0  0
  -10.3662    2.1276    1.9643 C   0  0  0  0  0  0  0  0  0  0  0  0
   -9.3165    1.0119    1.6813 C   0  0  0  0  0  0  0  0  0  0  0  0
   -9.9706   -0.3623    1.9245 C   0  0  0  0  0  0  0  0  0  0  0  0
   -8.8430    1.0627    0.2137 C   0  0  0  0  0  0  0  0  0  0  0  0
   -8.1488    1.1253    2.5679 N   0  0  0  0  0  0  0  0  0  0  0  0
  1  3  4  0
  1 14  4  0
  1  2  1  0
  3  4  4  0
  4  5  4  0
  5  6  4  0
  5 22  1  0
  6  7  1  0
  6 14  4  0
  7  8  1  0
  8  9  4  0
  8 12  4  0
  9 10  4  0
 10 11  4  0
 11 12  4  0
 12 13  1  0
 13 14  1  0
 13 15  1  6
 15 16  4  0
 15 20  4  0
 16 17  4  0
 17 18  4  0
 17 21  1  0
 18 19  4  0
 19 20  4  0
 23 24  4  0
 24 25  1  0
 24 26  4  0
 26 27  4  0
 27 28  4  0
 28 29  1  0
 27 30  1  0
 30 31  1  0
 30 32  1  0
 32 33  1  0
 33 34  1  0
 33 35  1  0
 33 36  1  0
 36 26  1  0
  2 23  4  0
  2 28  4  0
M  END
$$$$

     RDKit          3D

 39 44  0  0  0  0  0  0  0  0999 V2000
   -7.6410    4.9930    6.8080 C   0  0  0  0  0  0  0  0  0  1  0  0
   -7.7310    4.0530    5.7140 C   0  0  0  0  0  0  0  0  0  2  0  0
   -6.4520    5.6300    6.8680 N   0  0  0  0  0  0  0  0  0  0  0  0
   -6.2260    6.5240    7.8670 N   0  0  0  0  0  0  0  0  0  0  0  0
   -7.1930    6.7500    8.7820 C   0  0  0  0  0  0  0  0  0  0  0  0
   -8.4240    6.1170    8.7580 C   0  0  0  0  0  0  0  0  0  0  0  0
   -9.3950    6.3570    9.7450 N   0  0  0  0  0  0  0  0  0  0  0  0
  -10.5620    5.6840    9.7600 C   0  0  0  0  0  0  0  0  0  0  0  0
  -11.5770    5.6820   10.5960 N   0  0  0  0  0  0  0  0  0  0  0  0
  -12.4690    4.7490   10.1080 N   0  0  0  0  0  0  0  0  0  0  0  0
  -12.0160    4.1880    8.9920 N   0  0  0  0  0  0  0  0  0  0  0  0
  -10.8400    4.7900    8.7610 N   0  0  0  0  0  0  0  0  0  0  0  0
   -9.9950    4.4790    7.6090 C   0  0  0  0  0  0  0  0  0  0  0  0
   -8.6630    5.2070    7.7200 C   0  0  0  0  0  0  0  0  0  0  0  0
  -10.7490    4.8610    6.3730 C   0  0  0  0  0  0  0  0  0  0  0  0
  -11.0350    6.2020    6.1170 C   0  0  0  0  0  0  0  0  0  0  0  0
  -11.7370    6.5580    4.9650 C   0  0  0  0  0  0  0  0  0  0  0  0
  -12.1550    5.5730    4.0710 C   0  0  0  0  0  0  0  0  0  0  0  0
  -11.8700    4.2310    4.3270 C   0  0  0  0  0  0  0  0  0  0  0  0
  -11.1660    3.8760    5.4790 C   0  0  0  0  0  0  0  0  0  0  0  0
  -12.0160    7.8660    4.7150 O   0  0  0  0  0  0  0  0  0  0  0  0
   -6.8990    7.6510    9.7710 O   0  0  0  0  0  0  0  0  0  0  0  0
   -6.8604    3.0600    5.4202 N   0  0  0  0  0  0  0  0  0  0  0  0
   -7.2964    2.4093    4.3540 N   0  0  0  0  0  0  0  0  0  0  0  0
   -6.5749    1.2904    3.7459 C   0  0  0  0  0  0  0  0  0  0  0  0
   -6.5809    0.1260    4.6569 N   0  0  0  0  0  0  0  0  0  0  0  0
   -7.9195   -0.4858    4.7990 C   0  0  0  0  0  0  0  0  0  0  0  0
   -8.2826   -1.3671    3.5920 C   0  0  0  0  0  0  0  0  0  0  0  0
   -7.2957   -2.3542    3.3730 O   0  0  0  0  0  0  0  0  0  0  0  0
   -6.0582   -1.7374    3.0732 C   0  0  0  0  0  0  0  0  0  0  0  0
   -5.0339   -2.8238    2.7511 C   0  0  0  0  0  0  0  0  0  0  0  0
   -5.5791   -0.8892    4.2719 C   0  0  0  0  0  0  0  0  0  0  0  0
   -8.4669    2.9642    3.9728 C   0  0  0  0  0  0  0  0  0  0  0  0
   -9.3418    2.4907    2.6633 S   0  0  0  0  0  0  0  0  0  0  0  0
   -8.8064    3.9803    4.7977 N   0  0  0  0  0  0  0  0  0  0  0  0
   -9.9118    4.9389    4.6448 C   0  0  0  0  0  0  0  0  0  0  0  0
   -9.4105    6.3021    4.1244 C   0  0  0  0  0  0  0  0  0  0  0  0
  -10.5573    7.3194    4.1181 C   0  0  0  0  0  0  0  0  0  0  0  0
   -8.8052    6.1787    2.7199 C   0  0  0  0  0  0  0  0  0  0  0  0
  1  3  4  0
  1 14  4  0
  1  2  1  0
  3  4  4  0
  4  5  4  0
  5  6  4  0
  5 22  1  0
  6  7  1  0
  6 14  4  0
  7  8  1  0
  8  9  4  0
  8 12  4  0
  9 10  4  0
 10 11  4  0
 11 12  4  0
 12 13  1  0
 13 14  1  0
 13 15  1  6
 15 16  4  0
 15 20  4  0
 16 17  4  0
 17 18  4  0
 17 21  1  0
 18 19  4  0
 19 20  4  0
 23 24  4  0
 24 25  1  0
 25 26  1  0
 26 27  1  0
 27 28  1  0
 28 29  1  0
 29 30  1  0
 30 31  1  0
 30 32  1  0
 24 33  4  0
 33 34  2  0
 33 35  4  0
 35 36  1  0
 36 37  1  0
 37 38  1  0
 37 39  1  0
 32 26  1  0
  2 23  4  0
  2 35  4  0
M  END
$$$$

     RDKit          3D

 41 47  0  0  0  0  0  0  0  0999 V2000
   -7.6410    4.9930    6.8080 C   0  0  0  0  0  0  0  0  0  1  0  0
   -7.7310    4.0530    5.7140 C   0  0  0  0  0  0  0  0  0  2  0  0
   -6.4520    5.6300    6.8680 N   0  0  0  0  0  0  0  0  0  0  0  0
   -6.2260    6.5240    7.8670 N   0  0  0  0  0  0  0  0  0  0  0  0
   -7.1930    6.7500    8.7820 C   0  0  0  0  0  0  0  0  0  0  0  0
   -8.4240    6.1170    8.7580 C   0  0  0  0  0  0  0  0  0  0  0  0
   -9.3950    6.3570    9.7450 N   0  0  0  0  0  0  0  0  0  0  0  0
  -10.5620    5.6840    9.7600 C   0  0  0  0  0  0  0  0  0  0  0  0
  -11.5770    5.6820   10.5960 N   0  0  0  0  0  0  0  0  0  0  0  0
  -12.4690    4.7490   10.1080 N   0  0  0  0  0  0  0  0  0  0  0  0
  -12.0160    4.1880    8.9920 N   0  0  0  0  0  0  0  0  0  0  0  0
  -10.8400    4.7900    8.7610 N   0  0  0  0  0  0  0  0  0  0  0  0
   -9.9950    4.4790    7.6090 C   0  0  0  0  0  0  0  0  0  0  0  0
   -8.6630    5.2070    7.7200 C   0  0  0  0  0  0  0  0  0  0  0  0
  -10.7490    4.8610    6.3730 C   0  0  0  0  0  0  0  0  0  0  0  0
  -11.0350    6.2020    6.1170 C   0  0  0  0  0  0  0  0  0  0  0  0
  -11.7370    6.5580    4.9650 C   0  0  0  0  0  0  0  0  0  0  0  0
  -12.1550    5.5730    4.0710 C   0  0  0  0  0  0  0  0  0  0  0  0
  -11.8700    4.2310    4.3270 C   0  0  0  0  0  0  0  0  0  0  0  0
  -11.1660    3.8760    5.4790 C   0  0  0  0  0  0  0  0  0  0  0  0
  -12.0160    7.8660    4.7150 O   0  0  0  0  0  0  0  0  0  0  0  0
   -6.8990    7.6510    9.7710 O   0  0  0  0  0  0  0  0  0  0  0  0
   -6.7213    3.2380    5.3276 N   0  0  0  0  0  0  0  0  0  0  0  0
   -6.7849    2.3372    4.3430 N   0  0  0  0  0  0  0  0  0  0  0  0
   -5.6783    1.5927    4.0281 C   0  0  0  0  0  0  0  0  0  0  0  0
   -4.3674    1.7886    4.7449 C   0  0  0  0  0  0  0  0  0  0  0  0
   -3.6168    2.9954    4.1751 C   0  0  0  0  0  0  0  0  0  0  0  0
   -2.3300    3.2132    4.9084 C   0  0  0  0  0  0  0  0  0  0  0  0
   -2.1436    4.2739    5.5609 O   0  0  0  0  0  0  0  0  0  0  0  0
   -1.3306    2.2489    4.8644 O   0  0  0  0  0  0  0  0  0  0  0  0
   -5.7360    0.6857    3.0174 N   0  0  0  0  0  0  0  0  0  0  0  0
   -6.8746    0.4781    2.3115 C   0  0  0  0  0  0  0  0  0  0  0  0
   -6.8959   -0.4699    1.2819 C   0  0  0  0  0  0  0  0  0  0  0  0
   -8.0681   -0.6840    0.5517 C   0  0  0  0  0  0  0  0  0  0  0  0
   -9.2218    0.0479    0.8463 C   0  0  0  0  0  0  0  0  0  0  0  0
   -9.2094    0.9980    1.8724 C   0  0  0  0  0  0  0  0  0  0  0  0
   -8.0334    1.2200    2.6140 C   0  0  0  0  0  0  0  0  0  0  0  0
   -7.9594    2.1639    3.6525 C   0  0  0  0  0  0  0  0  0  0  0  0
   -9.0391    2.9238    3.9758 N   0  0  0  0  0  0  0  0  0  0  0  0
   -8.9809    3.8431    4.9690 C   0  0  0  0  0  0  0  0  0  0  0  0
   -9.9915    4.5547    5.2113 O   0  0  0  0  0  0  0  0  0  0  0  0
  1  3  4  0
  1 14  4  0
  1  2  1  0
  3  4  4  0
  4  5  4  0
  5  6  4  0
  5 22  1  0
  6  7  1  0
  6 14  4  0
  7  8  1  0
  8  9  4  0
  8 12  4  0
  9 10  4  0
 10 11  4  0
 11 12  4  0
 12 13  1  0
 13 14  1  0
 13 15  1  6
 15 16  4  0
 15 20  4  0
 16 17  4  0
 17 18  4  0
 17 21  1  0
 18 19  4  0
 19 20  4  0
 23 24  4  0
 24 25  4  0
 25 26  1  0
 26 27  1  0
 27 28  1  0
 28 29  2  0
 28 30  1  0
 25 31  4  0
 31 32  4  0
 32 33  4  0
 33 34  4  0
 34 35  4  0
 35 36  4  0
 36 37  4  0
 37 38  4  0
 38 39  4  0
 39 40  4  0
 40 41  2  0
 38 24  4  0
 37 32  4  0
  2 23  4  0
  2 40  4  0
M  CHG  1  30  -1
M  END
$$$$

     RDKit          3D

 41 47  0  0  0  0  0  0  0  0999 V2000
   -7.6410    4.9930    6.8080 C   0  0  0  0  0  0  0  0  0  1  0  0
   -7.7310    4.0530    5.7140 C   0  0  0  0  0  0  0  0  0  2  0  0
   -6.4520    5.6300    6.8680 N   0  0  0  0  0  0  0  0  0  0  0  0
   -6.2260    6.5240    7.8670 N   0  0  0  0  0  0  0  0  0  0  0  0
   -7.1930    6.7500    8.7820 C   0  0  0  0  0  0  0  0  0  0  0  0
   -8.4240    6.1170    8.7580 C   0  0  0  0  0  0  0  0  0  0  0  0
   -9.3950    6.3570    9.7450 N   0  0  0  0  0  0  0  0  0  0  0  0
  -10.5620    5.6840    9.7600 C   0  0  0  0  0  0  0  0  0  0  0  0
  -11.5770    5.6820   10.5960 N   0  0  0  0  0  0  0  0  0  0  0  0
  -12.4690    4.7490   10.1080 N   0  0  0  0  0  0  0  0  0  0  0  0
  -12.0160    4.1880    8.9920 N   0  0  0  0  0  0  0  0  0  0  0  0
  -10.8400    4.7900    8.7610 N   0  0  0  0  0  0  0  0  0  0  0  0
   -9.9950    4.4790    7.6090 C   0  0  0  0  0  0  0  0  0  0  0  0
   -8.6630    5.2070    7.7200 C   0  0  0  0  0  0  0  0  0  0  0  0
  -10.7490    4.8610    6.3730 C   0  0  0  0  0  0  0  0  0  0  0  0
  -11.0350    6.2020    6.1170 C   0  0  0  0  0  0  0  0  0  0  0  0
  -11.7370    6.5580    4.9650 C   0  0  0  0  0  0  0  0  0  0  0  0
  -12.1550    5.5730    4.0710 C   0  0  0  0  0  0  0  0  0  0  0  0
  -11.8700    4.2310    4.3270 C   0  0  0  0  0  0  0  0  0  0  0  0
  -11.1660    3.8760    5.4790 C   0  0  0  0  0  0  0  0  0  0  0  0
  -12.0160    7.8660    4.7150 O   0  0  0  0  0  0  0  0  0  0  0  0
   -6.8990    7.6510    9.7710 O   0  0  0  0  0  0  0  0  0  0  0  0
   -6.7244    3.2317    5.3321 N   0  0  0  0  0  0  0  0  0  0  0  0
   -6.7901    2.3298    4.3485 N   0  0  0  0  0  0  0  0  0  0  0  0
   -5.6875    1.5774    4.0385 C   0  0  0  0  0  0  0  0  0  0  0  0
   -4.3738    1.7680    4.7561 C   0  0  0  0  0  0  0  0  0  0  0  0
   -3.6128    2.9910    4.2295 C   0  0  0  0  0  0  0  0  0  0  0  0
   -3.2051    2.8167    2.7974 C   0  0  0  0  0  0  0  0  0  0  0  0
   -3.6497    3.5947    1.9129 O   0  0  0  0  0  0  0  0  0  0  0  0
   -2.3294    1.7990    2.4406 O   0  0  0  0  0  0  0  0  0  0  0  0
   -5.7492    0.6662    3.0320 N   0  0  0  0  0  0  0  0  0  0  0  0
   -6.8867    0.4645    2.3228 C   0  0  0  0  0  0  0  0  0  0  0  0
   -6.9109   -0.4864    1.2960 C   0  0  0  0  0  0  0  0  0  0  0  0
   -8.0820   -0.6940    0.5619 C   0  0  0  0  0  0  0  0  0  0  0  0
   -9.2312    0.0474    0.8499 C   0  0  0  0  0  0  0  0  0  0  0  0
   -9.2157    1.0005    1.8733 C   0  0  0  0  0  0  0  0  0  0  0  0
   -8.0408    1.2160    2.6186 C   0  0  0  0  0  0  0  0  0  0  0  0
   -7.9637    2.1621    3.6550 C   0  0  0  0  0  0  0  0  0  0  0  0
   -9.0399    2.9287    3.9735 N   0  0  0  0  0  0  0  0  0  0  0  0
   -8.9796    3.8491    4.9655 C   0  0  0  0  0  0  0  0  0  0  0  0
   -9.9869    4.5666    5.2040 O   0  0  0  0  0  0  0  0  0  0  0  0
  1  3  4  0
  1 14  4  0
  1  2  1  0
  3  4  4  0
  4  5  4  0
  5  6  4  0
  5 22  1  0
  6  7  1  0
  6 14  4  0
  7  8  1  0
  8  9  4  0
  8 12  4  0
  9 10  4  0
 10 11  4  0
 11 12  4  0
 12 13  1  0
 13 14  1  0
 13 15  1  6
 15 16  4  0
 15 20  4  0
 16 17  4  0
 17 18  4  0
 17 21  1  0
 18 19  4  0
 19 20  4  0
 23 24  4  0
 24 25  4  0
 25 26  1  0
 26 27  1  0
 27 28  1  0
 28 29  2  0
 28 30  1  0
 25 31  4  0
 31 32  4  0
 32 33  4  0
 33 34  4  0
 34 35  4  0
 35 36  4  0
 36 37  4  0
 37 38  4  0
 38 39  4  0
 39 40  4  0
 40 41  2  0
 38 24  4  0
 37 32  4  0
  2 23  4  0
  2 40  4  0
M  CHG  1  30  -1
M  END
$$$$

     RDKit          3D

 41 47  0  0  0  0  0  0  0  0999 V2000
   -7.6410    4.9930    6.8080 C   0  0  0  0  0  0  0  0  0  1  0  0
   -7.7310    4.0530    5.7140 C   0  0  0  0  0  0  0  0  0  2  0  0
   -6.4520    5.6300    6.8680 N   0  0  0  0  0  0  0  0  0  0  0  0
   -6.2260    6.5240    7.8670 N   0  0  0  0  0  0  0  0  0  0  0  0
   -7.1930    6.7500    8.7820 C   0  0  0  0  0  0  0  0  0  0  0  0
   -8.4240    6.1170    8.7580 C   0  0  0  0  0  0  0  0  0  0  0  0
   -9.3950    6.3570    9.7450 N   0  0  0  0  0  0  0  0  0  0  0  0
  -10.5620    5.6840    9.7600 C   0  0  0  0  0  0  0  0  0  0  0  0
  -11.5770    5.6820   10.5960 N   0  0  0  0  0  0  0  0  0  0  0  0
  -12.4690    4.7490   10.1080 N   0  0  0  0  0  0  0  0  0  0  0  0
  -12.0160    4.1880    8.9920 N   0  0  0  0  0  0  0  0  0  0  0  0
  -10.8400    4.7900    8.7610 N   0  0  0  0  0  0  0  0  0  0  0  0
   -9.9950    4.4790    7.6090 C   0  0  0  0  0  0  0  0  0  0  0  0
   -8.6630    5.2070    7.7200 C   0  0  0  0  0  0  0  0  0  0  0  0
  -10.7490    4.8610    6.3730 C   0  0  0  0  0  0  0  0  0  0  0  0
  -11.0350    6.2020    6.1170 C   0  0  0  0  0  0  0  0  0  0  0  0
  -11.7370    6.5580    4.9650 C   0  0  0  0  0  0  0  0  0  0  0  0
  -12.1550    5.5730    4.0710 C   0  0  0  0  0  0  0  0  0  0  0  0
  -11.8700    4.2310    4.3270 C   0  0  0  0  0  0  0  0  0  0  0  0
  -11.1660    3.8760    5.4790 C   0  0  0  0  0  0  0  0  0  0  0  0
  -12.0160    7.8660    4.7150 O   0  0  0  0  0  0  0  0  0  0  0  0
   -6.8990    7.6510    9.7710 O   0  0  0  0  0  0  0  0  0  0  0  0
   -6.7218    3.2378    5.3274 N   0  0  0  0  0  0  0  0  0  0  0  0
   -6.7901    2.3226    4.3568 N   0  0  0  0  0  0  0  0  0  0  0  0
   -5.6864    1.5705    4.0475 C   0  0  0  0  0  0  0  0  0  0  0  0
   -4.3837    1.7216    4.7964 C   0  0  0  0  0  0  0  0  0  0  0  0
   -4.2821    0.7255    5.9579 C   0  0  0  0  0  0  0  0  0  0  0  0
   -5.2325    1.0606    7.0672 C   0  0  0  0  0  0  0  0  0  0  0  0
   -6.1670    0.2700    7.3619 O   0  0  0  0  0  0  0  0  0  0  0  0
   -5.0797    2.2417    7.7830 O   0  0  0  0  0  0  0  0  0  0  0  0
   -5.7624    0.6244    3.0746 N   0  0  0  0  0  0  0  0  0  0  0  0
   -6.9049    0.4081    2.3782 C   0  0  0  0  0  0  0  0  0  0  0  0
   -6.9403   -0.5722    1.3797 C   0  0  0  0  0  0  0  0  0  0  0  0
   -8.1174   -0.7964    0.6603 C   0  0  0  0  0  0  0  0  0  0  0  0
   -9.2621   -0.0434    0.9359 C   0  0  0  0  0  0  0  0  0  0  0  0
   -9.2363    0.9374    1.9326 C   0  0  0  0  0  0  0  0  0  0  0  0
   -8.0548    1.1702    2.6625 C   0  0  0  0  0  0  0  0  0  0  0  0
   -7.9697    2.1383    3.6775 C   0  0  0  0  0  0  0  0  0  0  0  0
   -9.0474    2.9030    3.9958 N   0  0  0  0  0  0  0  0  0  0  0  0
   -8.9844    3.8346    4.9770 C   0  0  0  0  0  0  0  0  0  0  0  0
   -9.9943    4.5481    5.2168 O   0  0  0  0  0  0  0  0  0  0  0  0
  1  3  4  0
  1 14  4  0
  1  2  1  0
  3  4  4  0
  4  5  4  0
  5  6  4  0
  5 22  1  0
  6  7  1  0
  6 14  4  0
  7  8  1  0
  8  9  4  0
  8 12  4  0
  9 10  4  0
 10 11  4  0
 11 12  4  0
 12 13  1  0
 13 14  1  0
 13 15  1  6
 15 16  4  0
 15 20  4  0
 16 17  4  0
 17 18  4  0
 17 21  1  0
 18 19  4  0
 19 20  4  0
 23 24  4  0
 24 25  4  0
 25 26  1  0
 26 27  1  0
 27 28  1  0
 28 29  2  0
 28 30  1  0
 25 31  4  0
 31 32  4  0
 32 33  4  0
 33 34  4  0
 34 35  4  0
 35 36  4  0
 36 37  4  0
 37 38  4  0
 38 39  4  0
 39 40  4  0
 40 41  2  0
 38 24  4  0
 37 32  4  0
  2 23  4  0
  2 40  4  0
M  CHG  1  30  -1
M  END
$$$$

     RDKit          3D

 46 53  0  0  0  0  0  0  0  0999 V2000
   -7.6410    4.9930    6.8080 C   0  0  0  0  0  0  0  0  0  1  0  0
   -7.7310    4.0530    5.7140 C   0  0  0  0  0  0  0  0  0  2  0  0
   -6.4520    5.6300    6.8680 N   0  0  0  0  0  0  0  0  0  0  0  0
   -6.2260    6.5240    7.8670 N   0  0  0  0  0  0  0  0  0  0  0  0
   -7.1930    6.7500    8.7820 C   0  0  0  0  0  0  0  0  0  0  0  0
   -8.4240    6.1170    8.7580 C   0  0  0  0  0  0  0  0  0  0  0  0
   -9.3950    6.3570    9.7450 N   0  0  0  0  0  0  0  0  0  0  0  0
  -10.5620    5.6840    9.7600 C   0  0  0  0  0  0  0  0  0  0  0  0
  -11.5770    5.6820   10.5960 N   0  0  0  0  0  0  0  0  0  0  0  0
  -12.4690    4.7490   10.1080 N   0  0  0  0  0  0  0  0  0  0  0  0
  -12.0160    4.1880    8.9920 N   0  0  0  0  0  0  0  0  0  0  0  0
  -10.8400    4.7900    8.7610 N   0  0  0  0  0  0  0  0  0  0  0  0
   -9.9950    4.4790    7.6090 C   0  0  0  0  0  0  0  0  0  0  0  0
   -8.6630    5.2070    7.7200 C   0  0  0  0  0  0  0  0  0  0  0  0
  -10.7490    4.8610    6.3730 C   0  0  0  0  0  0  0  0  0  0  0  0
  -11.0350    6.2020    6.1170 C   0  0  0  0  0  0  0  0  0  0  0  0
  -11.7370    6.5580    4.9650 C   0  0  0  0  0  0  0  0  0  0  0  0
  -12.1550    5.5730    4.0710 C   0  0  0  0  0  0  0  0  0  0  0  0
  -11.8700    4.2310    4.3270 C   0  0  0  0  0  0  0  0  0  0  0  0
  -11.1660    3.8760    5.4790 C   0  0  0  0  0  0  0  0  0  0  0  0
  -12.0160    7.8660    4.7150 O   0  0  0  0  0  0  0  0  0  0  0  0
   -6.8990    7.6510    9.7710 O   0  0  0  0  0  0  0  0  0  0  0  0
   -6.8451    3.0874    5.3778 N   0  0  0  0  0  0  0  0  0  0  0  0
   -7.2972    2.4083    4.3310 N   0  0  0  0  0  0  0  0  0  0  0  0
   -8.4975    2.9296    4.0123 C   0  0  0  0  0  0  0  0  0  0  0  0
   -9.4795    2.3908    2.6093 S   0  0  0  0  0  0  0  0  0  0  0  0
   -8.7809    3.6352    1.4627 C   0  0  0  0  0  0  0  0  0  0  0  0
   -7.3851    3.2990    1.0091 C   0  0  0  0  0  0  0  0  0  0  0  0
   -6.8896    2.1729    1.2813 O   0  0  0  0  0  0  0  0  0  0  0  0
   -6.6317    4.2510    0.2356 N   0  0  0  0  0  0  0  0  0  0  0  0
   -7.2292    5.3733   -0.4929 C   0  0  0  0  0  0  0  0  0  0  0  0
   -6.0812    6.0279   -1.2954 C   0  0  0  0  0  0  0  0  0  0  0  0
   -4.8899    5.2240   -0.9118 C   0  0  0  0  0  0  0  0  0  0  0  0
   -3.5684    5.4192   -1.3142 C   0  0  0  0  0  0  0  0  0  0  0  0
   -2.5615    4.5714   -0.7989 C   0  0  0  0  0  0  0  0  0  1  0  0
   -1.1371    4.7336   -1.1906 C   0  0  0  0  0  0  0  0  0  2  0  0
   -0.6988    5.5061   -2.2716 C   0  0  0  0  0  0  0  0  0  0  0  0
    0.9772    5.3941   -2.3500 S   0  0  0  0  0  0  0  0  0  0  0  0
    1.0817    4.3805   -1.0172 C   0  0  0  0  0  0  0  0  0  0  0  0
    2.3515    3.8214   -0.4727 C   0  0  0  0  0  0  0  0  0  0  0  0
   -0.1372    4.1105   -0.5047 N   0  0  0  0  0  0  0  0  0  0  0  0
   -2.9258    3.5628    0.1268 C   0  0  0  0  0  0  0  0  0  0  0  0
   -4.2635    3.3901    0.5148 C   0  0  0  0  0  0  0  0  0  0  0  0
   -5.2358    4.2293   -0.0397 C   0  0  0  0  0  0  0  0  0  0  0  0
   -8.8272    3.9296    4.8462 N   0  0  0  0  0  0  0  0  0  0  0  0
   -9.9146    4.8109    4.7273 N   0  0  0  0  0  0  0  0  0  0  0  0
  1  3  4  0
  1 14  4  0
  1  2  1  0
  3  4  4  0
  4  5  4  0
  5  6  4  0
  5 22  1  0
  6  7  1  0
  6 14  4  0
  7  8  1  0
  8  9  4  0
  8 12  4  0
  9 10  4  0
 10 11  4  0
 11 12  4  0
 12 13  1  0
 13 14  1  0
 13 15  1  6
 15 16  4  0
 15 20  4  0
 16 17  4  0
 17 18  4  0
 17 21  1  0
 18 19  4  0
 19 20  4  0
 23 24  4  0
 24 25  4  0
 25 26  1  0
 26 27  1  0
 27 28  1  0
 28 29  2  0
 28 30  1  0
 30 31  1  0
 31 32  1  0
 32 33  1  0
 33 34  4  0
 34 35  4  0
 35 36  1  0
 36 37  4  0
 37 38  4  0
 38 39  4  0
 39 40  1  0
 39 41  4  0
 35 42  4  0
 42 43  4  0
 43 44  4  0
 25 45  4  0
 45 46  1  0
 44 30  1  0
 44 33  4  0
 41 36  4  0
  2 23  4  0
  2 45  4  0
M  END
$$$$

     RDKit          3D

 46 53  0  0  0  0  0  0  0  0999 V2000
   -7.6410    4.9930    6.8080 C   0  0  0  0  0  0  0  0  0  1  0  0
   -7.7310    4.0530    5.7140 C   0  0  0  0  0  0  0  0  0  2  0  0
   -6.4520    5.6300    6.8680 N   0  0  0  0  0  0  0  0  0  0  0  0
   -6.2260    6.5240    7.8670 N   0  0  0  0  0  0  0  0  0  0  0  0
   -7.1930    6.7500    8.7820 C   0  0  0  0  0  0  0  0  0  0  0  0
   -8.4240    6.1170    8.7580 C   0  0  0  0  0  0  0  0  0  0  0  0
   -9.3950    6.3570    9.7450 N   0  0  0  0  0  0  0  0  0  0  0  0
  -10.5620    5.6840    9.7600 C   0  0  0  0  0  0  0  0  0  0  0  0
  -11.5770    5.6820   10.5960 N   0  0  0  0  0  0  0  0  0  0  0  0
  -12.4690    4.7490   10.1080 N   0  0  0  0  0  0  0  0  0  0  0  0
  -12.0160    4.1880    8.9920 N   0  0  0  0  0  0  0  0  0  0  0  0
  -10.8400    4.7900    8.7610 N   0  0  0  0  0  0  0  0  0  0  0  0
   -9.9950    4.4790    7.6090 C   0  0  0  0  0  0  0  0  0  0  0  0
   -8.6630    5.2070    7.7200 C   0  0  0  0  0  0  0  0  0  0  0  0
  -10.7490    4.8610    6.3730 C   0  0  0  0  0  0  0  0  0  0  0  0
  -11.0350    6.2020    6.1170 C   0  0  0  0  0  0  0  0  0  0  0  0
  -11.7370    6.5580    4.9650 C   0  0  0  0  0  0  0  0  0  0  0  0
  -12.1550    5.5730    4.0710 C   0  0  0  0  0  0  0  0  0  0  0  0
  -11.8700    4.2310    4.3270 C   0  0  0  0  0  0  0  0  0  0  0  0
  -11.1660    3.8760    5.4790 C   0  0  0  0  0  0  0  0  0  0  0  0
  -12.0160    7.8660    4.7150 O   0  0  0  0  0  0  0  0  0  0  0  0
   -6.8990    7.6510    9.7710 O   0  0  0  0  0  0  0  0  0  0  0  0
   -6.8709    3.0502    5.4161 N   0  0  0  0  0  0  0  0  0  0  0  0
   -7.3242    2.3676    4.3716 N   0  0  0  0  0  0  0  0  0  0  0  0
   -8.4958    2.9279    4.0132 C   0  0  0  0  0  0  0  0  0  0  0  0
   -9.4716    2.3839    2.6080 S   0  0  0  0  0  0  0  0  0  0  0  0
   -8.4323    3.2129    1.3524 C   0  0  0  0  0  0  0  0  0  0  0  0
   -8.9553    4.5845    1.0440 C   0  0  0  0  0  0  0  0  0  0  0  0
   -9.0170    5.4494    1.9591 O   0  0  0  0  0  0  0  0  0  0  0  0
   -9.4100    4.9234   -0.2727 N   0  0  0  0  0  0  0  0  0  0  0  0
  -10.6869    5.5806   -0.5503 C   0  0  0  0  0  0  0  0  0  0  0  0
  -10.8373    5.5786   -2.0916 C   0  0  0  0  0  0  0  0  0  0  0  0
   -9.5615    4.9686   -2.5636 C   0  0  0  0  0  0  0  0  0  0  0  0
   -9.1324    4.7906   -3.8793 C   0  0  0  0  0  0  0  0  0  0  0  0
   -7.8474    4.2480   -4.1146 C   0  0  0  0  0  0  0  0  0  1  0  0
   -7.3410    4.0316   -5.4942 C   0  0  0  0  0  0  0  0  0  2  0  0
   -8.1513    4.0082   -6.6348 C   0  0  0  0  0  0  0  0  0  0  0  0
   -7.1716    3.6958   -7.9652 S   0  0  0  0  0  0  0  0  0  0  0  0
   -5.7638    3.6246   -7.0515 C   0  0  0  0  0  0  0  0  0  0  0  0
   -4.4146    3.2914   -7.5894 C   0  0  0  0  0  0  0  0  0  0  0  0
   -6.0188    3.8056   -5.7386 N   0  0  0  0  0  0  0  0  0  0  0  0
   -7.0263    3.9260   -3.0053 C   0  0  0  0  0  0  0  0  0  0  0  0
   -7.4852    4.1167   -1.6929 C   0  0  0  0  0  0  0  0  0  0  0  0
   -8.7756    4.6166   -1.5035 C   0  0  0  0  0  0  0  0  0  0  0  0
   -8.8085    3.9529    4.8241 N   0  0  0  0  0  0  0  0  0  0  0  0
   -9.9106    4.8190    4.7229 N   0  0  0  0  0  0  0  0  0  0  0  0
  1  3  4  0
  1 14  4  0
  1  2  1  0
  3  4  4  0
  4  5  4  0
  5  6  4  0
  5 22  1  0
  6  7  1  0
  6 14  4  0
  7  8  1  0
  8  9  4  0
  8 12  4  0
  9 10  4  0
 10 11  4  0
 11 12  4  0
 12 13  1  0
 13 14  1  0
 13 15  1  6
 15 16  4  0
 15 20  4  0
 16 17  4  0
 17 18  4  0
 17 21  1  0
 18 19  4  0
 19 20  4  0
 23 24  4  0
 24 25  4  0
 25 26  1  0
 26 27  1  0
 27 28  1  0
 28 29  2  0
 28 30  1  0
 30 31  1  0
 31 32  1  0
 32 33  1  0
 33 34  4  0
 34 35  4  0
 35 36  1  0
 36 37  4  0
 37 38  4  0
 38 39  4  0
 39 40  1  0
 39 41  4  0
 35 42  4  0
 42 43  4  0
 43 44  4  0
 25 45  4  0
 45 46  1  0
 44 30  1  0
 44 33  4  0
 41 36  4  0
  2 23  4  0
  2 45  4  0
M  END
$$$$
